*PLANT DORMANCY OUTPUT FILE

*DSSAT Cropping System Model Ver. 4.8.0.027 -release  FEB 01, 2024 15:59:10
@YEAR DOY   DAS   DAP   QDSD  PPGF  PPMF  PPTF  TSRD  TS1D  FRZ2  LV%D  SV%D  QV%D  RV%D
 1980 288   287     0 DORM   1.000 1.000 0.374   0.0  21.8 -18.0 0.394 0.276 0.249 0.081
 1980 289   288     1 DORM   1.000 1.000 0.370   0.0  22.7 -18.0 0.395 0.277 0.247 0.081
 1980 290   289     2 DORM   1.000 1.000 0.366   0.0  24.2 -18.0 0.396 0.278 0.245 0.082
 1980 291   290     3 DORM   1.000 1.000 0.362   0.0  26.0 -18.0 0.397 0.279 0.243 0.082
 1980 292   291     4 DORM   1.000 1.000 0.358   0.0  26.6 -18.0 0.398 0.279 0.240 0.082
 1980 293   292     5 DORM   1.000 1.000 0.354   0.0  26.5 -18.0 0.399 0.280 0.238 0.083
 1980 294   293     6 DORM   1.000 1.000 0.350   0.0  25.9 -18.0 0.400 0.281 0.236 0.083
 1980 295   294     7 DORM   1.000 1.000 0.346   0.0  25.1 -18.0 0.401 0.282 0.234 0.083
 1980 296   295     8 DORM   1.000 1.000 0.342   0.0  23.5 -18.0 0.402 0.282 0.232 0.083
 1980 297   296     9 DORM   1.000 1.000 0.339   0.0  22.2 -18.0 0.404 0.283 0.230 0.084
 1980 298   297    10 DORM   1.000 1.000 0.335   0.0  21.2 -18.0 0.405 0.284 0.227 0.084
 1980 299   298    11 DORM   1.000 1.000 0.331   0.0  21.4 -18.0 0.406 0.285 0.225 0.084
 1980 300   299    12 DORM   1.000 1.000 0.327   0.0  22.3 -18.0 0.407 0.285 0.223 0.085
 1980 301   300    13 DORM   1.000 1.000 0.324   0.0  23.0 -18.0 0.408 0.286 0.221 0.085
 1980 302   301    14 DORM   1.000 1.000 0.320   0.0  24.5 -18.0 0.409 0.287 0.219 0.085
 1980 303   302    15 DORM   1.000 1.000 0.316   0.0  26.0 -18.0 0.410 0.288 0.217 0.085
 1980 304   303    16 DORM   1.000 1.000 0.313   0.0  25.7 -18.0 0.411 0.288 0.215 0.086
 1980 305   304    17 DORM   1.000 1.000 0.309   0.0  24.4 -18.0 0.412 0.289 0.213 0.086
 1980 306   305    18 DORM   1.000 1.000 0.306   0.0  24.0 -18.0 0.413 0.290 0.211 0.086
 1980 307   306    19 DORM   1.000 1.000 0.302   0.0  23.7 -18.0 0.414 0.290 0.209 0.086
 1980 308   307    20 DORM   1.000 1.000 0.299   0.0  24.3 -18.0 0.415 0.291 0.207 0.087
 1980 309   308    21 DORM   1.000 1.000 0.295   0.0  25.6 -18.0 0.416 0.292 0.205 0.087
 1980 310   309    22 DORM   1.000 1.000 0.292   0.0  26.9 -18.0 0.417 0.292 0.204 0.087
 1980 311   310    23 DORM   1.000 1.000 0.289   0.0  26.9 -18.0 0.418 0.293 0.202 0.088
 1980 312   311    24 DORM   1.000 1.000 0.286   0.0  26.6 -18.0 0.419 0.294 0.200 0.088
 1980 313   312    25 DORM   1.000 1.000 0.282   0.0  25.4 -18.0 0.420 0.294 0.198 0.088
 1980 314   313    26 DORM   1.000 1.000 0.279   0.0  24.0 -18.0 0.420 0.295 0.196 0.088
 1980 315   314    27 DORM   1.000 1.000 0.276   0.0  22.5 -18.0 0.421 0.295 0.195 0.089
 1980 316   315    28 DORM   1.000 1.000 0.273   0.0  22.3 -18.0 0.422 0.296 0.193 0.089
 1980 317   316    29 DORM   1.000 1.000 0.270   0.0  21.9 -18.0 0.423 0.297 0.191 0.089
 1980 318   317    30 DORM   1.000 1.000 0.267   0.0  22.0 -18.0 0.424 0.297 0.190 0.089
 1980 319   318    31 DORM   1.000 1.000 0.264   0.0  23.5 -18.0 0.425 0.298 0.188 0.090
 1980 320   319    32 DORM   1.000 1.000 0.262   0.0  25.5 -18.0 0.425 0.298 0.186 0.090
 1980 321   320    33 DORM   1.000 1.000 0.259   0.0  27.0 -18.0 0.426 0.299 0.185 0.090
 1980 322   321    34 DORM   1.000 1.000 0.256   0.0  27.3 -18.0 0.427 0.299 0.183 0.090
 1980 323   322    35 DORM   1.000 1.000 0.253   0.0  27.6 -18.0 0.428 0.300 0.182 0.091
 1980 324   323    36 DORM   1.000 1.000 0.251   0.0  27.1 -18.0 0.428 0.300 0.180 0.091
 1980 325   324    37 DORM   1.000 1.000 0.248   0.0  26.4 -18.0 0.429 0.301 0.179 0.091
 1980 326   325    38 DORM   1.000 1.000 0.246   0.0  25.6 -18.0 0.430 0.301 0.178 0.091
 1980 327   326    39 DORM   1.000 1.000 0.244   0.0  25.7 -18.0 0.430 0.302 0.176 0.091
 1980 328   327    40 DORM   1.000 1.000 0.241   0.0  25.4 -18.0 0.431 0.302 0.175 0.092
 1980 329   328    41 DORM   1.000 1.000 0.239   0.0  25.3 -18.0 0.432 0.303 0.174 0.092
 1980 330   329    42 DORM   1.000 1.000 0.237   0.0  25.0 -18.0 0.432 0.303 0.173 0.092
 1980 331   330    43 DORM   1.000 1.000 0.235   0.0  24.8 -18.0 0.433 0.303 0.172 0.092
 1980 332   331    44 DORM   1.000 1.000 0.233   0.0  25.2 -18.0 0.433 0.304 0.170 0.092
 1980 333   332    45 DORM   1.000 1.000 0.231   0.0  25.3 -18.0 0.434 0.304 0.169 0.093
 1980 334   333    46 DORM   1.000 1.000 0.229   0.0  25.1 -18.0 0.417 0.292 0.162 0.129
 1980 335   334    47 DORM   1.000 1.000 0.227   0.0  25.5 -18.0 0.435 0.305 0.167 0.093
 1980 336   335    48 DORM   1.000 1.000 0.226   0.0  26.1 -18.0 0.435 0.305 0.166 0.093
 1980 337   336    49 DORM   1.000 1.000 0.224   0.0  25.8 -18.0 0.436 0.305 0.165 0.093
 1980 338   337    50 DORM   1.000 1.000 0.222   0.0  25.8 -18.0 0.436 0.306 0.165 0.094
 1980 339   338    51 DORM   1.000 1.000 0.221   0.0  25.8 -18.0 0.368 0.258 0.138 0.235
 1980 340   339    52 DORM   1.000 1.000 0.220   0.0  25.5 -18.0 0.410 0.287 0.153 0.151
 1980 341   340    53 DORM   1.000 1.000 0.218   0.0  25.8 -18.0 0.380 0.266 0.141 0.213
 1980 342   341    54 DORM   1.000 1.000 0.217   0.0  26.3 -18.0 0.394 0.276 0.146 0.184
 1980 343   342    55 DORM   1.000 1.000 0.216   0.0  27.5 -18.0 0.359 0.252 0.132 0.257
 1980 344   343    56 DORM   1.000 1.000 0.215   0.0  29.0 -18.0 0.385 0.270 0.141 0.204
 1980 345   344    57 DORM   1.000 1.000 0.214   0.0  30.5 -18.0 0.438 0.307 0.160 0.095
 1980 346   345    58 DORM   1.000 1.000 0.213   0.0  31.2 -18.0 0.439 0.307 0.159 0.095
 1980 347   346    59 DORM   1.000 1.000 0.212   0.0  31.2 -18.0 0.439 0.307 0.159 0.095
 1980 348   347    60 DORM   1.000 1.000 0.212   0.0  30.8 -18.0 0.439 0.307 0.159 0.095
 1980 349   348    61 DORM   1.000 1.000 0.211   0.0  29.9 -18.0 0.358 0.251 0.129 0.261
 1980 350   349    62 DORM   1.000 1.000 0.211   0.0  29.1 -18.0 0.439 0.307 0.158 0.095
 1980 351   350    63 DORM   1.000 1.000 0.210   0.0  28.5 -18.0 0.382 0.268 0.137 0.213
 1980 352   351    64 DORM   1.000 1.000 0.210   0.0  28.1 -18.0 0.439 0.308 0.158 0.096
 1980 353   352    65 DORM   1.000 1.000 0.210   0.0  27.4 -18.0 0.439 0.308 0.157 0.096
 1980 354   353    66 DORM   1.000 1.000 0.210   0.0  26.5 -18.0 0.381 0.267 0.136 0.216
 1980 355   354    67 DORM   1.000 1.000 0.210   0.0  25.4 -18.0 0.309 0.216 0.111 0.364
 1980 356   355    68 DORM   1.000 1.000 0.210   0.0  24.4 -18.0 0.287 0.201 0.103 0.409
 1980 357   356    69 DORM   1.000 1.000 0.210   0.0  23.9 -18.0 0.315 0.221 0.113 0.351
 1980 358   357    70 DORM   1.000 1.000 0.210   0.0  24.0 -18.0 0.333 0.233 0.120 0.314
 1980 359   358    71 DORM   1.000 1.000 0.210   0.0  24.6 -18.0 0.350 0.245 0.126 0.279
 1980 360   359    72 DORM   1.000 1.000 0.211   0.0  25.5 -18.0 0.348 0.243 0.125 0.284
 1980 361   360    73 DORM   1.000 1.000 0.211   0.0  26.5 -18.0 0.439 0.307 0.158 0.096
 1980 362   361    74 DORM   1.000 1.000 0.212   0.0  27.0 -18.0 0.438 0.307 0.159 0.096
 1980 363   362    75 DORM   1.000 1.000 0.212   0.0  27.2 -18.0 0.438 0.307 0.159 0.096
 1980 364   363    76 DORM   1.000 1.000 0.213   0.0  27.5 -18.0 0.438 0.306 0.159 0.096
 1980 365   364    77 DORM   1.000 1.000 0.214   0.0  27.7 -18.0 0.438 0.306 0.160 0.096
 1980 366   365    78 DORM   1.000 1.000 0.215   0.0  27.9 -18.0 0.437 0.306 0.160 0.096
 1981 001   366    79 DORM   1.000 1.000 0.215   0.0  28.8 -18.0 0.437 0.306 0.160 0.096
 1981 002   367    80 DORM   1.000 1.000 0.216   0.0  29.4 -18.0 0.437 0.306 0.161 0.096
 1981 003   368    81 DORM   1.000 1.000 0.217   0.0  29.4 -18.0 0.437 0.306 0.162 0.096
 1981 004   369    82 DORM   1.000 1.000 0.218   0.0  29.4 -18.0 0.430 0.301 0.160 0.110
 1981 005   370    83 DORM   1.000 1.000 0.220   0.0  29.8 -18.0 0.436 0.305 0.163 0.096
 1981 006   371    84 DORM   1.000 1.000 0.221   0.0  29.4 -18.0 0.436 0.305 0.164 0.096
 1981 007   372    85 DORM   1.000 1.000 0.222   0.0  29.1 -18.0 0.435 0.305 0.165 0.096
 1981 008   373    86 DORM   1.000 1.000 0.224   0.0  29.2 -18.0 0.621 0.123 0.158 0.098
 1981 009   374    87 DORM   1.000 1.000 0.226   0.0  29.3 -18.0 0.617 0.124 0.159 0.100
 1981 010   375    88 DORM   1.000 1.000 0.227   0.0  28.9 -18.0 0.612 0.125 0.161 0.102
 1981 011   376    89 DORM   1.000 1.000 0.229   0.0  29.0 -18.0 0.607 0.127 0.162 0.104
 1981 012   377    90 DORM   1.000 1.000 0.231   0.0  29.2 -18.0 0.472 0.101 0.129 0.298
 1981 013   378    91 DORM   1.000 1.000 0.233   0.0  29.3 -18.0 0.571 0.124 0.158 0.147
 1981 014   379    92 DORM   1.000 1.000 0.235   0.0  29.2 -18.0 0.335 0.074 0.094 0.497
 1981 015   380    93 DORM   1.000 1.000 0.237   0.0  28.9 -18.0 0.335 0.075 0.096 0.495
 1981 016   381    94 DORM   1.000 1.000 0.239   0.0  28.7 -18.0 0.446 0.102 0.130 0.322
 1981 017   382    95 DORM   1.000 1.000 0.241   0.0  28.7 -18.0 0.577 0.134 0.172 0.117
 1981 018   383    96 DORM   1.000 1.000 0.244   0.0  28.9 -18.0 0.339 0.080 0.103 0.478
 1981 019   384    97 DORM   1.000 1.000 0.246   0.0  28.7 -18.0 0.446 0.108 0.138 0.308
 1981 020   385    98 DORM   1.000 1.000 0.248   0.0  29.1 -18.0 0.369 0.091 0.116 0.424
 1981 021   386    99 DORM   1.000 1.000 0.251   0.0  28.7 -18.0 0.300 0.075 0.096 0.528
 1981 022   387   100 DORM   1.000 1.000 0.253   0.0  28.1 -18.0 0.394 0.099 0.128 0.378
 1981 023   388   101 DORM   1.000 1.000 0.256   0.0  27.8 -18.0 0.293 0.075 0.098 0.534
 1981 024   389   102 DORM   1.000 1.000 0.259   0.0  28.1 -18.0 0.532 0.139 0.181 0.149
 1981 025   390   103 DORM   1.000 1.000 0.262   0.0  28.3 -18.0 0.509 0.135 0.176 0.180
 1981 026   391   104 DORM   1.000 1.000 0.264   0.0  28.8 -18.0 0.326 0.090 0.115 0.469
 1981 027   392   105 DORM   1.000 1.000 0.267   0.0  29.8 -18.0 0.267 0.079 0.097 0.557
 1981 028   393   106 DORM   1.000 1.000 0.270   0.0  30.5 -18.0 0.335 0.105 0.124 0.435
 1981 029   394   107 DORM   1.000 1.000 0.273   0.0  30.4 -18.0 0.356 0.118 0.134 0.392
 1981 030   395   108 DORM   1.000 1.000 0.276   0.0  30.0 -18.0 0.236 0.081 0.091 0.592
 1981 031   396   109 DORM   1.000 1.000 0.279   0.0  29.7 -18.0 0.370 0.134 0.146 0.350
 1981 032   397   110 DORM   1.000 1.000 0.282   0.0  29.5 -18.0 0.290 0.110 0.116 0.484
 1981 033   398   111 DORM   1.000 1.000 0.286   0.0  29.3 -18.0 0.320 0.128 0.131 0.421
 1981 034   399   112 DORM   1.000 1.000 0.289   0.0  29.4 -18.0 0.294 0.124 0.124 0.457
 1981 035   400   113 DORM   1.000 1.000 0.292   0.0  29.2 -18.0 0.206 0.090 0.088 0.616
 1981 036   401   114 DORM   1.000 1.000 0.295   0.0  28.7 -18.0 0.452 0.089 0.152 0.307
 1981 037   402   115 DORM   1.000 1.000 0.299   0.0  27.8 -18.0 0.417 0.083 0.143 0.356
 1981 038   403   116 DORM   1.000 1.000 0.302   0.0  27.3 -18.0 0.402 0.082 0.140 0.375
 1981 039   404   117 DORM   1.000 1.000 0.306   0.0  27.3 -18.0 0.426 0.089 0.152 0.333
 1981 040   405   118 DORM   1.000 1.000 0.309   0.0  27.7 -18.0 0.571 0.121 0.208 0.100
 1981 041   406   119 DORM   1.000 1.000 0.313   0.0  27.8 -18.0 0.521 0.112 0.193 0.174
 1981 042   407   120 DORM   1.000 1.000 0.316   0.0  28.5 -18.0 0.262 0.057 0.099 0.581
 1981 043   408   121 DORM   1.000 1.000 0.320   0.0  29.0 -18.0 0.325 0.073 0.126 0.476
 1981 044   409   122 DORM   1.000 1.000 0.324   0.0  28.8 -18.0 0.383 0.087 0.152 0.377
 1981 045   410   123 DORM   1.000 1.000 0.327   0.0  28.1 -18.0 0.331 0.076 0.134 0.459
 1981 046   411   124 DORM   1.000 1.000 0.331   0.0  28.5 -18.0 0.419 0.099 0.173 0.309
 1981 047   412   125 DORM   1.000 1.000 0.335   0.0  28.1 -18.0 0.533 0.128 0.225 0.114
 1981 048   413   126 DORM   1.000 1.000 0.339   0.0  28.0 -18.0 0.356 0.087 0.153 0.404
 1981 049   414   127 DORM   1.000 1.000 0.342   0.0  28.5 -18.0 0.255 0.064 0.113 0.569
 1981 050   415   128 DORM   1.000 1.000 0.346   0.0  29.3 -18.0 0.297 0.075 0.134 0.494
 1981 051   416   129 DORM   1.000 1.000 0.350   0.0  29.5 -18.0 0.361 0.093 0.166 0.379
 1981 052   417   130 DORM   1.000 1.000 0.354   0.0  30.1 -18.0 0.300 0.079 0.141 0.479
 1981 053   418   131 DORM   1.000 1.000 0.358   0.0  30.1 -18.0 0.285 0.077 0.137 0.502
 1981 054   419   132 DORM   1.000 1.000 0.362   0.0  29.9 -18.0 0.401 0.114 0.197 0.288
 1981 055   420   133 DORM   1.000 1.000 0.366   0.0  30.4 -18.0 0.284 0.086 0.143 0.488
 1981 056   421   134 DORM   1.000 1.000 0.370   0.0  31.2 -18.0 0.253 0.081 0.130 0.536
 1981 057   422   135 DORM   1.000 1.000 0.374   0.0  31.7 -18.0 0.218 0.074 0.115 0.593
 1981 058   423   136 DORM   1.000 1.000 0.378   0.0  32.3 -18.0 0.465 0.168 0.252 0.115
 1981 059   424   137 DORM   1.000 1.000 0.382   0.0  32.2 -18.0 0.367 0.140 0.203 0.290
 1981 060   425   138 DORM   1.000 1.000 0.386   0.0  31.7 -18.0 0.266 0.106 0.150 0.478
 1981 061   426   139 DORM   1.000 1.000 0.390   0.0  31.0 -18.0 0.447 0.185 0.258 0.109
 1981 062   427   140 DORM   1.000 1.000 0.394   0.0  29.7 -18.0 0.442 0.190 0.261 0.107
 1981 063   428   141 DORM   1.000 1.000 0.398   0.0  28.2 -18.0 0.437 0.194 0.263 0.106
 1981 064   429   142 DORM   1.000 1.000 0.402   0.0  27.6 -18.0 0.547 0.108 0.260 0.086
 1981 065   430   143 DORM   1.000 1.000 0.406   0.0  27.3 -18.0 0.541 0.109 0.262 0.087
 1981 066   431   144 DORM   1.000 1.000 0.411   0.0  26.6 -18.0 0.537 0.110 0.265 0.089
 1981 067   432   145 DORM   1.000 1.000 0.415   0.0  26.4 -18.0 0.532 0.110 0.268 0.090
 1981 068   433   146 DORM   1.000 1.000 0.419   0.0  26.5 -18.0 0.528 0.111 0.270 0.092
 1981 069   434   147 DORM   1.000 1.000 0.423   0.0  26.5 -18.0 0.523 0.111 0.273 0.093
 1981 070   435   148 DORM   1.000 1.000 0.427   0.0  26.5 -18.0 0.518 0.112 0.275 0.095
 1981 071   436   149 DORM   1.000 1.000 0.432   0.0  26.9 -18.0 0.234 0.052 0.127 0.587
 1981 072   437   150 DORM   1.000 1.000 0.436   0.0  27.4 -18.0 0.508 0.114 0.281 0.098
 1981 073   438   151 DORM   1.000 1.000 0.440   0.0  27.6 -18.0 0.503 0.114 0.283 0.099
 1981 074   439   152 DORM   1.000 1.000 0.444   0.0  27.5 -18.0 0.498 0.115 0.286 0.101
 1981 075   440   153 DORM   1.000 1.000 0.448   0.0  26.7 -18.0 0.495 0.115 0.289 0.101
 1981 076   441   154 DORM   1.000 1.000 0.453   0.0  25.7 -18.0 0.491 0.116 0.291 0.102
 1981 077   442   155 DORM   1.000 1.000 0.457   0.0  25.0 -18.0 0.488 0.116 0.294 0.103
 1981 078   443   156 DORM   1.000 1.000 0.461   0.0  24.4 -18.0 0.483 0.116 0.296 0.104
 1981 079   444   157 DORM   1.000 1.000 0.465   0.0  23.6 -18.0 0.480 0.117 0.299 0.105
 1981 080   445   158 DORM   1.000 1.000 0.470   0.0  23.5 -18.0 0.477 0.117 0.301 0.105
 1981 081   446   159 DORM   1.000 1.000 0.474   0.0  23.9 -18.0 0.473 0.117 0.304 0.106
 1981 082   447   160 DORM   1.000 1.000 0.475   0.0  24.4 -18.0 0.455 0.114 0.295 0.136
 1981 083   448   161 DORM   1.000 1.000 0.475   0.0  24.9 -18.0 0.235 0.060 0.153 0.552
 1981 084   449   162 DORM   1.000 1.000 0.475   0.0  25.4 -18.0 0.187 0.048 0.123 0.642
 1981 085   450   163 DORM   1.000 1.000 0.475   0.0  26.3 -18.0 0.206 0.054 0.136 0.604
 1981 086   451   164 DORM   1.000 1.000 0.475   0.0  26.8 -18.0 0.207 0.054 0.138 0.600
 1981 087   452   165 DORM   1.000 1.000 0.475   0.0  27.0 -18.0 0.231 0.061 0.154 0.554
 1981 088   453   166 DORM   1.000 1.000 0.475   0.0  27.1 -18.0 0.244 0.068 0.164 0.525
 1981 089   454   167 DORM   1.000 1.000 0.475   0.0  27.2 -18.0 0.450 0.131 0.306 0.113
 1981 090   455   168 DORM   1.000 1.000 0.475   0.0  26.7 -18.0 0.446 0.136 0.306 0.112
 1981 091   456   169 DORM   1.000 1.000 0.475   0.0  26.3 -18.0 0.443 0.140 0.306 0.111
 1981 092   457   170 DORM   1.000 1.000 0.475   0.0  25.7 -18.0 0.518 0.100 0.301 0.081
 1981 093   458   171 DORM   1.000 1.000 0.475   0.0  25.4 -18.0 0.516 0.101 0.301 0.082
 1981 094   459   172 DORM   1.000 1.000 0.475   0.0  25.1 -18.0 0.513 0.102 0.301 0.084
 1981 095   460   173 DORM   1.000 1.000 0.475   0.0  25.4 -18.0 0.511 0.103 0.302 0.085
 1981 096   461   174 DORM   1.000 1.000 0.475   0.0  25.6 -18.0 0.508 0.104 0.302 0.087
 1981 097   462   175 DORM   1.000 1.000 0.475   0.0  26.3 -18.0 0.504 0.105 0.302 0.088
 1981 098   463   176 DORM   1.000 1.000 0.475   0.0  26.8 -18.0 0.501 0.106 0.302 0.090
 1981 099   464   177 DORM   1.000 1.000 0.475   0.0  27.4 -18.0 0.498 0.107 0.303 0.092
 1981 100   465   178 DORM   1.000 1.000 0.475   0.0  27.3 -18.0 0.495 0.109 0.303 0.094
 1981 101   466   179 DORM   1.000 1.000 0.475   0.0  27.2 -18.0 0.492 0.110 0.303 0.095
 1981 102   467   180 DORM   1.000 1.000 0.475   0.0  26.8 -18.0 0.488 0.111 0.303 0.097
 1981 103   468   181 DORM   1.000 1.000 0.475   0.0  26.0 -18.0 0.486 0.112 0.304 0.099
 1981 104   469   182 DORM   1.000 1.000 0.475   0.0  25.1 -18.0 0.484 0.113 0.304 0.100
 1981 105   470   183 DORM   1.000 1.000 0.475   0.0  24.3 -18.0 0.482 0.113 0.304 0.101
 1981 106   471   184 DORM   1.000 1.000 0.475   0.0  23.4 -18.0 0.480 0.114 0.304 0.102
 1981 107   472   185 DORM   1.000 1.000 0.475   0.0  22.6 -18.0 0.478 0.115 0.304 0.103
 1981 108   473   186 DORM   1.000 1.000 0.475   0.0  22.3 -18.0 0.476 0.115 0.304 0.104
 1981 109   474   187 DORM   1.000 1.000 0.475   0.0  22.6 -18.0 0.473 0.116 0.305 0.106
 1981 110   475   188 DORM   1.000 1.000 0.475   0.0  23.4 -18.0 0.471 0.117 0.305 0.107
 1981 111   476   189 DORM   1.000 1.000 0.475   0.0  24.3 -18.0 0.468 0.118 0.305 0.109
 1981 112   477   190 DORM   1.000 1.000 0.475   0.0  25.1 -18.0 0.465 0.119 0.305 0.110
 1981 113   478   191 DORM   1.000 1.000 0.475   0.0  25.3 -18.0 0.463 0.120 0.305 0.112
 1981 114   479   192 DORM   1.000 1.000 0.475   0.0  24.6 -18.0 0.462 0.120 0.306 0.112
 1981 115   480   193 DORM   1.000 1.000 0.475   0.0  23.6 -18.0 0.460 0.121 0.306 0.113
 1981 116   481   194 DORM   1.000 1.000 0.475   0.0  22.6 -18.0 0.458 0.122 0.306 0.115
 1981 117   482   195 DORM   1.000 1.000 0.475   0.0  21.5 -18.0 0.456 0.123 0.306 0.116
 1981 118   483   196 DORM   1.000 1.000 0.475   0.0  20.4 -18.0 0.454 0.125 0.306 0.115
 1981 119   484   197 DORM   1.000 1.000 0.475   0.0  20.0 -18.0 0.452 0.127 0.306 0.114
 1981 120   485   198 DORM   1.000 1.000 0.475   0.0  19.9 -18.0 0.451 0.129 0.306 0.114
 1981 121   486   199 DORM   1.000 1.000 0.475   0.0  19.6 -18.0 0.449 0.132 0.306 0.113
 1981 122   487   200 DORM   1.000 1.000 0.475   0.0  19.8 -18.0 0.447 0.134 0.306 0.113
 1981 123   488   201 DORM   1.000 1.000 0.475   0.0  20.6 -18.0 0.444 0.138 0.306 0.111
 1981 124   489   202 DORM   1.000 1.000 0.475   0.0  21.8 -18.0 0.441 0.143 0.306 0.110
 1981 125   490   203 DORM   1.000 1.000 0.475   0.0  23.5 -18.0 0.436 0.149 0.306 0.109
 1981 126   491   204 DORM   1.000 1.000 0.475   0.0  24.5 -18.0 0.433 0.154 0.306 0.107
 1981 127   492   205 DORM   1.000 1.000 0.475   0.0  25.8 -18.0 0.429 0.160 0.306 0.106
 1981 128   493   206 DORM   1.000 1.000 0.475   0.0  26.8 -18.0 0.424 0.166 0.306 0.104
 1981 129   494   207 DORM   1.000 1.000 0.475   0.0  27.3 -18.0 0.420 0.171 0.306 0.103
 1981 130   495   208 DORM   1.000 1.000 0.475   0.0  27.0 -18.0 0.416 0.176 0.306 0.101
 1981 131   496   209 DORM   1.000 1.000 0.475   0.0  27.2 -18.0 0.412 0.182 0.306 0.100
 1981 132   497   210 DORM   1.000 1.000 0.475   0.0  27.1 -18.0 0.408 0.188 0.306 0.098
 1981 133   498   211 DORM   1.000 1.000 0.475   0.0  26.8 -18.0 0.404 0.193 0.306 0.097
 1981 134   499   212 DORM   1.000 1.000 0.475   0.0  26.1 -18.0 0.401 0.197 0.306 0.096
 1981 135   500   213 DORM   1.000 1.000 0.475   0.0  25.0 -18.0 0.400 0.199 0.306 0.095
 1981 136   501   214 DORM   1.000 1.000 0.475   0.0  24.1 -18.0 0.398 0.202 0.306 0.095
 1981 137   502   215 DORM   1.000 1.000 0.475   0.0  23.3 -18.0 0.394 0.206 0.306 0.093
 1981 138   503   216 DORM   1.000 1.000 0.475   0.0  22.8 -18.0 0.391 0.211 0.306 0.092
 1981 139   504   217 DORM   1.000 1.000 0.475   0.0  23.3 -18.0 0.387 0.216 0.306 0.091
 1981 140   505   218 DORM   1.000 1.000 0.475   0.0  23.3 -18.0 0.386 0.218 0.306 0.090
 1981 141   506   219 DORM   1.000 1.000 0.475   0.0  23.1 -18.0 0.384 0.220 0.306 0.090
 1981 142   507   220 DORM   1.000 1.000 0.475   0.0  23.0 -18.0 0.381 0.224 0.306 0.089
 1981 143   508   221 DORM   1.000 1.000 0.475   0.0  23.2 -18.0 0.377 0.230 0.306 0.087
 1981 144   509   222 DORM   1.000 1.000 0.475   0.0  23.2 -18.0 0.376 0.232 0.306 0.086
 1981 145   510   223 DORM   1.000 1.000 0.475   0.0  23.7 -18.0 0.376 0.232 0.306 0.086
 1981 146   511   224 DORM   1.000 1.000 0.475   0.0  23.4 -18.0 0.376 0.233 0.306 0.086
 1981 147   512   225 DORM   1.000 1.000 0.475   0.0  22.5 -18.0 0.376 0.233 0.306 0.085
 1981 148   513   226 DORM   1.000 1.000 0.475   0.0  21.5 -18.0 0.518 0.101 0.301 0.080
 1981 149   514   227 DORM   1.000 1.000 0.475   0.0  20.7 -18.0 0.516 0.102 0.301 0.081
 1981 150   515   228 DORM   1.000 1.000 0.475   0.0  20.7 -18.0 0.513 0.103 0.301 0.083
 1981 151   516   229 DORM   1.000 1.000 0.475   0.0  21.4 -18.0 0.511 0.104 0.301 0.084
 1981 152   517   230 DORM   1.000 1.000 0.475   0.0  22.5 -18.0 0.509 0.104 0.302 0.085
 1981 153   518   231 DORM   1.000 1.000 0.475   0.0  22.5 -18.0 0.508 0.105 0.302 0.086
 1981 154   519   232 DORM   1.000 1.000 0.475   0.0  21.4 -18.0 0.507 0.105 0.302 0.086
 1981 155   520   233 DORM   1.000 1.000 0.475   0.0  20.1 -18.0 0.507 0.105 0.302 0.086
 1981 156   521   234 DORM   1.000 1.000 0.475   0.0  18.8 -18.0 0.506 0.105 0.302 0.087
 1981 157   522   235 DORM   1.000 1.000 0.475   0.0  17.4 -18.0 0.504 0.106 0.302 0.088
 1981 158   523   236 DORM   1.000 1.000 0.475   0.0  16.6 -18.0 0.504 0.106 0.302 0.088
 1981 159   524   237 DORM   1.000 1.000 0.475   0.0  16.3 -18.0 0.503 0.106 0.302 0.088
 1981 160   525   238 DORM   1.000 1.000 0.475   0.0  16.6 -18.0 0.502 0.107 0.302 0.089
 1981 161   526   239 DORM   1.000 1.000 0.475   0.0  16.4 -18.0 0.502 0.107 0.302 0.089
 1981 162   527   240 DORM   1.000 1.000 0.475   0.0  16.1 -18.0 0.501 0.107 0.302 0.089
 1981 163   528   241 DORM   1.000 1.000 0.475   0.0  16.2 -18.0 0.501 0.107 0.302 0.090
 1981 164   529   242 DORM   1.000 1.000 0.475   0.0  16.1 -18.0 0.500 0.107 0.302 0.090
 1981 165   530   243 DORM   1.000 1.000 0.475   0.0  15.5 -18.0 0.500 0.107 0.302 0.090
 1981 166   531   244 DORM   1.000 1.000 0.475   0.0  15.7 -18.0 0.499 0.108 0.302 0.091
 1981 167   532   245 DORM   1.000 1.000 0.475   0.0  15.5 -18.0 0.498 0.108 0.302 0.091
 1981 168   533   246 DORM   1.000 1.000 0.475   0.0  14.9 -18.0 0.498 0.108 0.302 0.091
 1981 169   534   247 DORM   1.000 1.000 0.475   0.0  14.8 -18.0 0.498 0.108 0.303 0.091
 1981 170   535   248 DORM   1.000 1.000 0.475   0.0  15.1 -18.0 0.497 0.108 0.303 0.092
 1981 171   536   249 DORM   1.000 1.000 0.475   0.0  14.6 -18.0 0.497 0.109 0.303 0.092
 1981 172   537   250 DORM   1.000 1.000 0.475   0.0  15.2 -18.0 0.496 0.109 0.303 0.093
 1981 173   538   251 DORM   1.000 1.000 0.475   0.0  15.7 -18.0 0.495 0.109 0.303 0.093
 1981 174   539   252 DORM   1.000 1.000 0.475   0.0  16.0 -18.0 0.494 0.109 0.303 0.093
 1981 175   540   253 DORM   1.000 1.000 0.475   0.0  16.0 -18.0 0.494 0.110 0.303 0.094
 1981 176   541   254 DORM   1.000 1.000 0.475   0.0  16.7 -18.0 0.493 0.110 0.303 0.094
 1981 177   542   255 DORM   1.000 1.000 0.475   0.0  17.6 -18.0 0.490 0.111 0.303 0.096
 1981 178   543   256 DORM   1.000 1.000 0.475   0.0  19.0 -18.0 0.488 0.112 0.303 0.097
 1981 179   544   257 DORM   1.000 1.000 0.475   0.0  20.1 -18.0 0.486 0.112 0.304 0.098
 1981 180   545   258 DORM   1.000 1.000 0.475   0.0  21.0 -18.0 0.484 0.113 0.304 0.099
 1981 181   546   259 DORM   1.000 1.000 0.475   0.0  21.6 -18.0 0.482 0.114 0.304 0.101
 1981 182   547   260 DORM   1.000 1.000 0.475   0.0  20.4 -18.0 0.481 0.114 0.304 0.101
 1981 183   548   261 DORM   1.000 1.000 0.475   0.0  18.7 -18.0 0.481 0.114 0.304 0.101
 1981 184   549   262 DORM   1.000 1.000 0.475   0.0  17.7 -18.0 0.480 0.114 0.304 0.101
 1981 185   550   263 DORM   1.000 1.000 0.475   0.0  16.8 -18.0 0.480 0.115 0.304 0.102
 1981 186   551   264 DORM   1.000 1.000 0.475   0.0  15.9 -18.0 0.479 0.115 0.304 0.102
 1981 187   552   265 DORM   1.000 1.000 0.475   0.0  16.1 -18.0 0.478 0.115 0.304 0.103
 1981 188   553   266 DORM   1.000 1.000 0.475   0.0  16.9 -18.0 0.477 0.115 0.304 0.103
 1981 189   554   267 DORM   1.000 1.000 0.475   0.0  17.6 -18.0 0.476 0.116 0.304 0.104
 1981 190   555   268 DORM   1.000 1.000 0.475   0.0  18.3 -18.0 0.474 0.116 0.304 0.105
 1981 191   556   269 DORM   1.000 1.000 0.475   0.0  18.9 -18.0 0.473 0.117 0.305 0.106
 1981 192   557   270 DORM   1.000 1.000 0.475   0.0  19.1 -18.0 0.472 0.117 0.305 0.106
 1981 193   558   271 DORM   1.000 1.000 0.475   0.0  19.7 -18.0 0.469 0.118 0.305 0.108
 1981 194   559   272 DORM   1.000 1.000 0.475   0.0  20.0 -18.0 0.467 0.119 0.305 0.109
 1981 195   560   273 DORM   1.000 1.000 0.475   0.0  20.8 -18.0 0.465 0.120 0.305 0.110
 1981 196   561   274 DORM   1.000 1.000 0.475   0.0  21.8 -18.0 0.462 0.121 0.305 0.112
 1981 197   562   275 DORM   1.000 1.000 0.475   0.0  22.3 -18.0 0.460 0.121 0.306 0.113
 1981 198   563   276 DORM   1.000 1.000 0.475   0.0  21.1 -18.0 0.460 0.121 0.306 0.113
 1981 199   564   277 DORM   1.000 1.000 0.475   0.0  20.1 -18.0 0.459 0.122 0.306 0.113
 1981 200   565   278 DORM   1.000 1.000 0.475   0.0  17.9 -18.0 0.459 0.122 0.306 0.114
 1981 201   566   279 DORM   1.000 1.000 0.475   0.0  15.7 -18.0 0.459 0.122 0.306 0.114
 1981 202   567   280 DORM   1.000 1.000 0.475   0.0  14.4 -18.0 0.458 0.122 0.306 0.114
 1981 203   568   281 DORM   1.000 1.000 0.475   0.0  14.0 -18.0 0.458 0.122 0.306 0.114
 1981 204   569   282 DORM   1.000 1.000 0.475   0.0  13.5 -18.0 0.519 0.101 0.301 0.079
 1981 205   570   283 DORM   1.000 1.000 0.475   0.0  13.4 -18.0 0.519 0.101 0.301 0.080
 1981 206   571   284 DORM   1.000 1.000 0.475   0.0  13.4 -18.0 0.518 0.101 0.301 0.080
 1981 207   572   285 DORM   1.000 1.000 0.475   0.0  13.6 -18.0 0.518 0.101 0.301 0.080
 1981 208   573   286 DORM   1.000 1.000 0.475   0.0  14.4 -18.0 0.517 0.102 0.301 0.081
 1981 209   574   287 DORM   1.000 1.000 0.475   0.0  15.4 -18.0 0.516 0.102 0.301 0.081
 1981 210   575   288 DORM   1.000 1.000 0.475   0.0  17.1 -18.0 0.514 0.103 0.301 0.082
 1981 211   576   289 DORM   1.000 1.000 0.475   0.0  18.5 -18.0 0.512 0.103 0.301 0.083
 1981 212   577   290 DORM   1.000 1.000 0.475   0.0  19.6 -18.0 0.510 0.104 0.301 0.084
 1981 213   578   291 DORM   1.000 1.000 0.475   0.0  20.5 -18.0 0.508 0.105 0.302 0.086
 1981 214   579   292 DORM   1.000 1.000 0.475   0.0  21.7 -18.0 0.505 0.106 0.302 0.087
 1981 215   580   293 DORM   1.000 1.000 0.475   0.0  22.7 -18.0 0.502 0.107 0.302 0.089
 1981 216   581   294 DORM   1.000 1.000 0.475   0.0  24.1 -18.0 0.499 0.108 0.302 0.091
 1981 217   582   295 DORM   1.000 1.000 0.475   0.0  25.5 -18.0 0.496 0.109 0.303 0.093
 1981 218   583   296 DORM   1.000 1.000 0.475   0.0  26.2 -18.0 0.493 0.110 0.303 0.094
 1981 219   584   297 DORM   1.000 1.000 0.475   0.0  26.0 -18.0 0.491 0.111 0.303 0.095
 1981 220   585   298 DORM   1.000 1.000 0.475   0.0  24.8 -18.0 0.489 0.111 0.303 0.096
 1981 221   586   299 DORM   1.000 1.000 0.475   0.0  22.4 -18.0 0.489 0.111 0.303 0.096
 1981 222   587   300 DORM   1.000 1.000 0.475   0.0  20.3 -18.0 0.489 0.111 0.303 0.097
 1981 223   588   301 DORM   1.000 1.000 0.475   0.0  19.0 -18.0 0.488 0.112 0.303 0.097
 1981 224   589   302 DORM   1.000 1.000 0.475   0.0  17.9 -18.0 0.487 0.112 0.303 0.098
 1981 225   590   303 DORM   1.000 1.000 0.475   0.0  17.3 -18.0 0.486 0.112 0.303 0.098
 1981 226   591   304 DORM   1.000 1.000 0.475   0.0  17.6 -18.0 0.485 0.113 0.304 0.099
 1981 227   592   305 DORM   1.000 1.000 0.475   0.0  18.2 -18.0 0.484 0.113 0.304 0.099
 1981 228   593   306 DORM   1.000 1.000 0.475   0.0  18.8 -18.0 0.482 0.114 0.304 0.100
 1981 229   594   307 DORM   1.000 1.000 0.475   0.0  19.7 -18.0 0.480 0.114 0.304 0.101
 1981 230   595   308 DORM   1.000 1.000 0.475   0.0  20.5 -18.0 0.479 0.115 0.304 0.102
 1981 231   596   309 DORM   1.000 1.000 0.475   0.0  20.8 -18.0 0.478 0.115 0.304 0.103
 1981 232   597   310 DORM   1.000 1.000 0.475   0.0  20.7 -18.0 0.477 0.115 0.304 0.103
 1981 233   598   311 DORM   1.000 1.000 0.475   0.0  20.6 -18.0 0.476 0.116 0.304 0.104
 1981 234   599   312 DORM   1.000 1.000 0.475   0.0  20.5 -18.0 0.474 0.116 0.304 0.105
 1981 235   600   313 DORM   1.000 1.000 0.475   0.0  20.9 -18.0 0.473 0.117 0.305 0.106
 1981 236   601   314 DORM   1.000 1.000 0.475   0.0  21.5 -18.0 0.471 0.118 0.305 0.107
 1981 237   602   315 DORM   1.000 1.000 0.475   0.0  21.8 -18.0 0.469 0.118 0.305 0.108
 1981 238   603   316 DORM   1.000 1.000 0.475   0.0  21.5 -18.0 0.467 0.119 0.305 0.109
 1981 239   604   317 DORM   1.000 1.000 0.475   0.0  20.7 -18.0 0.466 0.119 0.305 0.109
 1981 240   605   318 DORM   1.000 1.000 0.475   0.0  19.9 -18.0 0.465 0.119 0.305 0.110
 1981 241   606   319 DORM   1.000 1.000 0.475   0.0  19.3 -18.0 0.464 0.120 0.305 0.111
 1981 242   607   320 DORM   1.000 1.000 0.475   0.0  19.1 -18.0 0.462 0.121 0.305 0.112
 1981 243   608   321 DORM   1.000 1.000 0.475   0.0  18.6 -18.0 0.462 0.121 0.305 0.112
 1981 244   609   322 DORM   1.000 1.000 0.475   0.0  18.0 -18.0 0.461 0.121 0.306 0.112
 1981 245   610   323 DORM   1.000 1.000 0.475   0.0  17.2 -18.0 0.460 0.121 0.306 0.113
 1981 246   611   324 DORM   1.000 1.000 0.475   0.0  16.3 -18.0 0.459 0.122 0.306 0.113
 1981 247   612   325 DORM   1.000 1.000 0.475   0.0  15.7 -18.0 0.459 0.122 0.306 0.114
 1981 248   613   326 DORM   1.000 1.000 0.475   0.0  15.9 -18.0 0.458 0.122 0.306 0.114
 1981 249   614   327 DORM   1.000 1.000 0.475   0.0  17.0 -18.0 0.457 0.123 0.306 0.115
 1981 250   615   328 DORM   1.000 1.000 0.475   0.0  18.9 -18.0 0.382 0.105 0.258 0.255
 1981 251   616   329 DORM   1.000 1.000 0.475   0.0  21.0 -18.0 0.450 0.130 0.306 0.114
 1981 252   617   330 DORM   1.000 1.000 0.475   0.0  23.3 -18.0 0.432 0.131 0.296 0.141
 1981 253   618   331 DORM   1.000 1.000 0.475   0.0  23.9 -18.0 0.444 0.138 0.306 0.112
 1981 254   619   332 DORM   1.000 1.000 0.475   0.0  23.8 -18.0 0.355 0.113 0.246 0.287
 1981 255   620   333 DORM   1.000 1.000 0.475   0.0  23.0 -18.0 0.440 0.144 0.306 0.110
 1981 256   621   334 DORM   1.000 1.000 0.475   0.0  21.2 -18.0 0.439 0.145 0.306 0.110
 1981 257   622   335 DORM   1.000 1.000 0.475   0.0  19.3 -18.0 0.327 0.111 0.229 0.333
 1981 258   623   336 DORM   1.000 1.000 0.475   0.0  18.0 -18.0 0.145 0.049 0.102 0.704
 1981 259   624   337 DORM   1.000 1.000 0.475   0.0  17.4 -18.0 0.344 0.118 0.242 0.296
 1981 260   625   338 DORM   1.000 1.000 0.475   0.0  17.1 -18.0 0.506 0.099 0.294 0.101
 1981 261   626   339 DORM   1.000 1.000 0.475   0.0  18.3 -18.0 0.321 0.064 0.188 0.427
 1981 262   627   340 DORM   1.000 1.000 0.475   0.0  18.8 -18.0 0.380 0.076 0.223 0.321
 1981 263   628   341 DORM   1.000 1.000 0.475   0.0  19.4 -18.0 0.361 0.073 0.212 0.353
 1981 264   629   342 DORM   1.000 1.000 0.474   0.0  19.4 -18.0 0.329 0.066 0.193 0.411
 1981 265   630   343 DORM   1.000 1.000 0.470   0.0  18.9 -18.0 0.338 0.068 0.196 0.398
 1981 266   631   344 DORM   1.000 1.000 0.465   0.0  17.7 -18.0 0.514 0.105 0.296 0.085
 1981 267   632   345 DORM   1.000 1.000 0.461   0.0  17.3 -18.0 0.433 0.089 0.247 0.231
 1981 268   633   346 DORM   1.000 1.000 0.457   0.0  17.6 -18.0 0.381 0.079 0.216 0.323
 1981 269   634   347 DORM   1.000 1.000 0.453   0.0  19.1 -18.0 0.283 0.060 0.160 0.497
 1981 270   635   348 DORM   1.000 1.000 0.448   0.0  21.1 -18.0 0.271 0.058 0.152 0.519
 1981 271   636   349 DORM   1.000 1.000 0.444   0.0  23.1 -18.0 0.322 0.070 0.180 0.427
 1981 272   637   350 DORM   1.000 1.000 0.440   0.0  23.3 -18.0 0.511 0.112 0.283 0.095
 1981 273   638   351 DORM   1.000 1.000 0.436   0.0  22.7 -18.0 0.512 0.112 0.280 0.095
 1981 274   639   352 DORM   1.000 1.000 0.432   0.0  21.6 -18.0 0.513 0.113 0.278 0.096
 1981 275   640   353 DORM   1.000 1.000 0.427   0.0  20.6 -18.0 0.513 0.114 0.276 0.097
 1981 276   641   354 DORM   1.000 1.000 0.423   0.0  20.1 -18.0 0.481 0.108 0.257 0.154
 1981 277   642   355 DORM   1.000 1.000 0.419   0.0  20.3 -18.0 0.399 0.090 0.211 0.299
 1981 278   643   356 DORM   1.000 1.000 0.415   0.0  20.6 -18.0 0.260 0.059 0.136 0.545
 1981 279   644   357 DORM   1.000 1.000 0.411   0.0  20.8 -18.0 0.513 0.118 0.267 0.102
 1981 280   645   358 DORM   1.000 1.000 0.406   0.0  20.0 -18.0 0.513 0.118 0.265 0.103
 1981 281   646   359 DORM   1.000 1.000 0.402   0.0  18.6 -18.0 0.421 0.097 0.215 0.267
 1981 282   647   360 DORM   1.000 1.000 0.398   0.0  18.0 -18.0 0.515 0.120 0.260 0.105
 1981 283   648   361 DORM   1.000 1.000 0.394   0.0  18.0 -18.0 0.516 0.120 0.258 0.106
 1981 284   649   362 DORM   1.000 1.000 0.390   0.0  18.0 -18.0 0.227 0.053 0.113 0.607
 1981 285   650   363 DORM   1.000 1.000 0.386   0.0  18.4 -18.0 0.443 0.105 0.217 0.235
 1981 286   651   364 DORM   1.000 1.000 0.382   0.0  19.1 -18.0 0.322 0.076 0.156 0.445
 1981 287   652   365 DORM   1.000 1.000 0.378   0.0  20.2 -18.0 0.221 0.053 0.107 0.619
 1981 288   653   366 DORM   1.000 1.000 0.374   0.0  21.3 -18.0 0.434 0.105 0.208 0.253
 1981 289   654   367 DORM   1.000 1.000 0.370   0.0  21.9 -18.0 0.516 0.126 0.245 0.113
 1981 290   655   368 DORM   1.000 1.000 0.366   0.0  21.7 -18.0 0.516 0.126 0.243 0.115
 1981 291   656   369 DORM   1.000 1.000 0.362   0.0  21.2 -18.0 0.248 0.061 0.115 0.576
 1981 292   657   370 DORM   1.000 1.000 0.358   0.0  20.6 -18.0 0.287 0.071 0.133 0.509
 1981 293   658   371 DORM   1.000 1.000 0.354   0.0  19.8 -18.0 0.193 0.048 0.088 0.671
 1981 294   659   372 DORM   1.000 1.000 0.350   0.0  19.8 -18.0 0.207 0.052 0.094 0.647
 1981 295   660   373 DORM   1.000 1.000 0.346   0.0  20.6 -18.0 0.171 0.043 0.077 0.709
 1981 296   661   374 DORM   1.000 1.000 0.342   0.0  21.9 -18.0 0.210 0.054 0.094 0.642
 1981 297   662   375 DORM   1.000 1.000 0.339   0.0  23.5 -18.0 0.444 0.116 0.198 0.241
 1981 298   663   376 DORM   1.000 1.000 0.335   0.0  25.1 -18.0 0.273 0.072 0.121 0.533
 1981 299   664   377 DORM   1.000 1.000 0.331   0.0  25.6 -18.0 0.305 0.082 0.135 0.477
 1981 300   665   378 DORM   1.000 1.000 0.327   0.0  25.9 -18.0 0.265 0.074 0.117 0.545
 1981 301   666   379 DORM   1.000 1.000 0.324   0.0  25.9 -18.0 0.202 0.059 0.089 0.650
 1981 302   667   380 DORM   1.000 1.000 0.320   0.0  25.9 -18.0 0.221 0.068 0.097 0.615
 1981 303   668   381 DORM   1.000 1.000 0.316   0.0  26.2 -18.0 0.345 0.112 0.151 0.391
 1981 304   669   382 DORM   1.000 1.000 0.313   0.0  27.5 -18.0 0.254 0.087 0.111 0.548
 1981 305   670   383 DORM   1.000 1.000 0.309   0.0  29.0 -18.0 0.376 0.137 0.164 0.323
 1981 306   671   384 DORM   1.000 1.000 0.306   0.0  29.7 -18.0 0.404 0.154 0.176 0.266
 1981 307   672   385 DORM   1.000 1.000 0.302   0.0  29.9 -18.0 0.481 0.192 0.209 0.118
 1981 308   673   386 DORM   1.000 1.000 0.299   0.0  29.4 -18.0 0.266 0.110 0.115 0.509
 1981 309   674   387 DORM   1.000 1.000 0.295   0.0  28.0 -18.0 0.250 0.108 0.108 0.534
 1981 310   675   388 DORM   1.000 1.000 0.292   0.0  26.5 -18.0 0.249 0.111 0.107 0.533
 1981 311   676   389 DORM   1.000 1.000 0.289   0.0  25.5 -18.0 0.180 0.082 0.077 0.660
 1981 312   677   390 DORM   1.000 1.000 0.286   0.0  25.0 -18.0 0.222 0.105 0.095 0.578
 1981 313   678   391 DORM   1.000 1.000 0.282   0.0  25.1 -18.0 0.189 0.092 0.081 0.639
 1981 314   679   392 DORM   1.000 1.000 0.279   0.0  25.9 -18.0 0.432 0.219 0.184 0.165
 1981 315   680   393 DORM   1.000 1.000 0.276   0.0  26.6 -18.0 0.457 0.240 0.195 0.108
 1981 316   681   394 DORM   1.000 1.000 0.273   0.0  27.4 -18.0 0.601 0.119 0.186 0.094
 1981 317   682   395 DORM   1.000 1.000 0.270   0.0  27.9 -18.0 0.598 0.120 0.185 0.097
 1981 318   683   396 DORM   1.000 1.000 0.267   0.0  27.9 -18.0 0.596 0.122 0.183 0.099
 1981 319   684   397 DORM   1.000 1.000 0.264   0.0  27.6 -18.0 0.593 0.123 0.182 0.101
 1981 320   685   398 DORM   1.000 1.000 0.262   0.0  27.2 -18.0 0.592 0.125 0.181 0.103
 1981 321   686   399 DORM   1.000 1.000 0.259   0.0  26.9 -18.0 0.590 0.126 0.180 0.105
 1981 322   687   400 DORM   1.000 1.000 0.256   0.0  26.4 -18.0 0.587 0.127 0.178 0.107
 1981 323   688   401 DORM   1.000 1.000 0.253   0.0  25.6 -18.0 0.586 0.128 0.177 0.109
 1981 324   689   402 DORM   1.000 1.000 0.251   0.0  25.1 -18.0 0.584 0.129 0.176 0.110
 1981 325   690   403 DORM   1.000 1.000 0.248   0.0  25.6 -18.0 0.582 0.131 0.175 0.113
 1981 326   691   404 DORM   1.000 1.000 0.246   0.0  25.9 -18.0 0.579 0.132 0.174 0.115
 1981 327   692   405 DORM   1.000 1.000 0.244   0.0  26.1 -18.0 0.577 0.134 0.173 0.117
 1981 328   693   406 DORM   1.000 1.000 0.241   0.0  26.6 -18.0 0.574 0.135 0.172 0.119
 1981 329   694   407 DORM   1.000 1.000 0.239   0.0  26.7 -18.0 0.573 0.136 0.171 0.121
 1981 330   695   408 DORM   1.000 1.000 0.237   0.0  26.1 -18.0 0.571 0.137 0.170 0.122
 1981 331   696   409 DORM   1.000 1.000 0.235   0.0  25.6 -18.0 0.569 0.138 0.169 0.124
 1981 332   697   410 DORM   1.000 1.000 0.233   0.0  25.1 -18.0 0.566 0.140 0.168 0.126
 1981 333   698   411 DORM   1.000 1.000 0.231   0.0  24.8 -18.0 0.564 0.141 0.167 0.128
 1981 334   699   412 DORM   1.000 1.000 0.229   0.0  25.0 -18.0 0.561 0.142 0.167 0.130
 1981 335   700   413 DORM   1.000 1.000 0.227   0.0  25.1 -18.0 0.558 0.143 0.166 0.132
 1981 336   701   414 DORM   1.000 1.000 0.226   0.0  25.0 -18.0 0.557 0.144 0.165 0.133
 1981 337   702   415 DORM   1.000 1.000 0.224   0.0  25.2 -18.0 0.555 0.145 0.165 0.135
 1981 338   703   416 DORM   1.000 1.000 0.222   0.0  25.7 -18.0 0.552 0.147 0.164 0.137
 1981 339   704   417 DORM   1.000 1.000 0.221   0.0  25.9 -18.0 0.549 0.148 0.164 0.139
 1981 340   705   418 DORM   1.000 1.000 0.220   0.0  26.2 -18.0 0.545 0.154 0.163 0.138
 1981 341   706   419 DORM   1.000 1.000 0.218   0.0  26.6 -18.0 0.542 0.160 0.162 0.137
 1981 342   707   420 DORM   1.000 1.000 0.217   0.0  26.7 -18.0 0.538 0.165 0.162 0.135
 1981 343   708   421 DORM   1.000 1.000 0.216   0.0  26.6 -18.0 0.535 0.170 0.161 0.134
 1981 344   709   422 DORM   1.000 1.000 0.215   0.0  26.5 -18.0 0.626 0.123 0.153 0.098
 1981 345   710   423 DORM   1.000 1.000 0.214   0.0  26.5 -18.0 0.623 0.125 0.153 0.100
 1981 346   711   424 DORM   1.000 1.000 0.213   0.0  26.8 -18.0 0.619 0.126 0.153 0.102
 1981 347   712   425 DORM   1.000 1.000 0.212   0.0  27.6 -18.0 0.615 0.128 0.153 0.105
 1981 348   713   426 DORM   1.000 1.000 0.212   0.0  28.5 -18.0 0.611 0.129 0.153 0.107
 1981 349   714   427 DORM   1.000 1.000 0.211   0.0  29.0 -18.0 0.607 0.131 0.153 0.110
 1981 350   715   428 DORM   1.000 1.000 0.211   0.0  29.4 -18.0 0.603 0.132 0.153 0.112
 1981 351   716   429 DORM   1.000 1.000 0.210   0.0  29.9 -18.0 0.599 0.133 0.153 0.114
 1981 352   717   430 DORM   1.000 1.000 0.210   0.0  30.3 -18.0 0.595 0.135 0.153 0.117
 1981 353   718   431 DORM   1.000 1.000 0.210   0.0  30.0 -18.0 0.590 0.137 0.154 0.119
 1981 354   719   432 DORM   1.000 1.000 0.210   0.0  30.3 -18.0 0.585 0.138 0.154 0.122
 1981 355   720   433 DORM   1.000 1.000 0.210   0.0  30.1 -18.0 0.582 0.140 0.154 0.124
 1981 356   721   434 DORM   1.000 1.000 0.210   0.0  28.9 -18.0 0.579 0.141 0.155 0.126
 1981 357   722   435 DORM   1.000 1.000 0.210   0.0  27.4 -18.0 0.576 0.141 0.155 0.128
 1981 358   723   436 DORM   1.000 1.000 0.210   0.0  26.8 -18.0 0.379 0.094 0.103 0.423
 1981 359   724   437 DORM   1.000 1.000 0.210   0.0  26.1 -18.0 0.270 0.068 0.074 0.587
 1981 360   725   438 DORM   1.000 1.000 0.211   0.0  26.2 -18.0 0.311 0.080 0.086 0.523
 1981 361   726   439 DORM   1.000 1.000 0.211   0.0  27.2 -18.0 0.319 0.084 0.090 0.508
 1981 362   727   440 DORM   1.000 1.000 0.212   0.0  28.3 -18.0 0.318 0.085 0.091 0.507
 1981 363   728   441 DORM   1.000 1.000 0.212   0.0  29.2 -18.0 0.316 0.088 0.091 0.505
 1981 364   729   442 DORM   1.000 1.000 0.213   0.0  30.0 -18.0 0.342 0.101 0.100 0.457
 1981 365   730   443 DORM   1.000 1.000 0.214   0.0  29.9 -18.0 0.538 0.166 0.160 0.135
 1982 001   731   444 DORM   1.000 1.000 0.215   0.0  28.9 -18.0 0.257 0.082 0.077 0.584
 1982 002   732   445 DORM   1.000 1.000 0.216   0.0  27.9 -18.0 0.271 0.089 0.082 0.558
 1982 003   733   446 DORM   1.000 1.000 0.217   0.0  27.0 -18.0 0.273 0.093 0.084 0.550
 1982 004   734   447 DORM   1.000 1.000 0.218   0.0  26.1 -18.0 0.242 0.085 0.075 0.597
 1982 005   735   448 DORM   1.000 1.000 0.220   0.0  26.3 -18.0 0.409 0.151 0.129 0.310
 1982 006   736   449 DORM   1.000 1.000 0.221   0.0  27.2 -18.0 0.512 0.198 0.164 0.126
 1982 007   737   450 DORM   1.000 1.000 0.222   0.0  27.5 -18.0 0.622 0.123 0.157 0.098
 1982 008   738   451 DORM   1.000 1.000 0.224   0.0  27.4 -18.0 0.618 0.124 0.158 0.099
 1982 009   739   452 DORM   1.000 1.000 0.226   0.0  27.4 -18.0 0.613 0.125 0.160 0.102
 1982 010   740   453 DORM   1.000 1.000 0.227   0.0  27.3 -18.0 0.608 0.127 0.161 0.104
 1982 011   741   454 DORM   1.000 1.000 0.229   0.0  26.9 -18.0 0.604 0.128 0.162 0.106
 1982 012   742   455 DORM   1.000 1.000 0.231   0.0  27.0 -18.0 0.600 0.128 0.164 0.107
 1982 013   743   456 DORM   1.000 1.000 0.233   0.0  27.4 -18.0 0.596 0.129 0.165 0.109
 1982 014   744   457 DORM   1.000 1.000 0.235   0.0  27.6 -18.0 0.592 0.131 0.167 0.111
 1982 015   745   458 DORM   1.000 1.000 0.237   0.0  27.9 -18.0 0.587 0.132 0.168 0.113
 1982 016   746   459 DORM   1.000 1.000 0.239   0.0  28.5 -18.0 0.319 0.073 0.093 0.516
 1982 017   747   460 DORM   1.000 1.000 0.241   0.0  29.0 -18.0 0.392 0.091 0.117 0.401
 1982 018   748   461 DORM   1.000 1.000 0.244   0.0  29.4 -18.0 0.232 0.055 0.070 0.643
 1982 019   749   462 DORM   1.000 1.000 0.246   0.0  29.5 -18.0 0.219 0.053 0.068 0.660
 1982 020   750   463 DORM   1.000 1.000 0.248   0.0  29.8 -18.0 0.233 0.057 0.073 0.637
 1982 021   751   464 DORM   1.000 1.000 0.251   0.0  29.8 -18.0 0.258 0.064 0.083 0.596
 1982 022   752   465 DORM   1.000 1.000 0.253   0.0  29.6 -18.0 0.293 0.074 0.096 0.537
 1982 023   753   466 DORM   1.000 1.000 0.256   0.0  29.2 -18.0 0.216 0.055 0.072 0.657
 1982 024   754   467 DORM   1.000 1.000 0.259   0.0  29.2 -18.0 0.190 0.050 0.064 0.696
 1982 025   755   468 DORM   1.000 1.000 0.262   0.0  29.1 -18.0 0.194 0.051 0.067 0.689
 1982 026   756   469 DORM   1.000 1.000 0.264   0.0  29.2 -18.0 0.194 0.050 0.068 0.689
 1982 027   757   470 DORM   1.000 1.000 0.267   0.0  30.1 -18.0 0.209 0.053 0.073 0.665
 1982 028   758   471 DORM   1.000 1.000 0.270   0.0  31.5 -18.0 0.267 0.069 0.095 0.570
 1982 029   759   472 DORM   1.000 1.000 0.273   0.0  32.1 -18.0 0.411 0.108 0.148 0.332
 1982 030   760   473 DORM   1.000 1.000 0.276   0.0  32.3 -18.0 0.305 0.086 0.113 0.496
 1982 031   761   474 DORM   1.000 1.000 0.279   0.0  32.2 -18.0 0.381 0.116 0.144 0.359
 1982 032   762   475 DORM   1.000 1.000 0.282   0.0  31.7 -18.0 0.370 0.120 0.143 0.366
 1982 033   763   476 DORM   1.000 1.000 0.286   0.0  31.1 -18.0 0.452 0.157 0.179 0.213
 1982 034   764   477 DORM   1.000 1.000 0.289   0.0  30.3 -18.0 0.497 0.181 0.202 0.119
 1982 035   765   478 DORM   1.000 1.000 0.292   0.0  29.3 -18.0 0.606 0.104 0.197 0.093
 1982 036   766   479 DORM   1.000 1.000 0.295   0.0  28.2 -18.0 0.601 0.105 0.199 0.095
 1982 037   767   480 DORM   1.000 1.000 0.299   0.0  27.7 -18.0 0.595 0.107 0.201 0.096
 1982 038   768   481 DORM   1.000 1.000 0.302   0.0  27.6 -18.0 0.589 0.109 0.204 0.098
 1982 039   769   482 DORM   1.000 1.000 0.306   0.0  28.1 -18.0 0.583 0.111 0.206 0.101
 1982 040   770   483 DORM   1.000 1.000 0.309   0.0  28.4 -18.0 0.577 0.112 0.208 0.103
 1982 041   771   484 DORM   1.000 1.000 0.313   0.0  29.0 -18.0 0.570 0.114 0.211 0.105
 1982 042   772   485 DORM   1.000 1.000 0.316   0.0  29.3 -18.0 0.564 0.116 0.213 0.107
 1982 043   773   486 DORM   1.000 1.000 0.320   0.0  29.0 -18.0 0.558 0.117 0.216 0.109
 1982 044   774   487 DORM   1.000 1.000 0.324   0.0  29.0 -18.0 0.551 0.119 0.218 0.111
 1982 045   775   488 DORM   1.000 1.000 0.327   0.0  29.0 -18.0 0.546 0.120 0.221 0.113
 1982 046   776   489 DORM   1.000 1.000 0.331   0.0  28.8 -18.0 0.540 0.122 0.223 0.115
 1982 047   777   490 DORM   1.000 1.000 0.335   0.0  28.9 -18.0 0.534 0.123 0.226 0.117
 1982 048   778   491 DORM   1.000 1.000 0.339   0.0  28.9 -18.0 0.528 0.125 0.228 0.119
 1982 049   779   492 DORM   1.000 1.000 0.342   0.0  28.1 -18.0 0.523 0.126 0.230 0.121
 1982 050   780   493 DORM   1.000 1.000 0.346   0.0  27.8 -18.0 0.402 0.099 0.181 0.319
 1982 051   781   494 DORM   1.000 1.000 0.350   0.0  27.7 -18.0 0.335 0.084 0.154 0.427
 1982 052   782   495 DORM   1.000 1.000 0.354   0.0  27.5 -18.0 0.491 0.126 0.231 0.152
 1982 053   783   496 DORM   1.000 1.000 0.358   0.0  27.1 -18.0 0.271 0.072 0.130 0.526
 1982 054   784   497 DORM   1.000 1.000 0.362   0.0  27.0 -18.0 0.238 0.067 0.117 0.578
 1982 055   785   498 DORM   1.000 1.000 0.366   0.0  26.9 -18.0 0.256 0.075 0.128 0.541
 1982 056   786   499 DORM   1.000 1.000 0.370   0.0  26.8 -18.0 0.253 0.077 0.129 0.541
 1982 057   787   500 DORM   1.000 1.000 0.374   0.0  26.8 -18.0 0.287 0.092 0.149 0.472
 1982 058   788   501 DORM   1.000 1.000 0.378   0.0  27.4 -18.0 0.353 0.120 0.188 0.339
 1982 059   789   502 DORM   1.000 1.000 0.382   0.0  28.2 -18.0 0.407 0.146 0.222 0.226
 1982 060   790   503 DORM   1.000 1.000 0.386   0.0  28.9 -18.0 0.307 0.116 0.171 0.407
 1982 061   791   504 DORM   1.000 1.000 0.390   0.0  29.0 -18.0 0.279 0.110 0.159 0.451
 1982 062   792   505 DORM   1.000 1.000 0.394   0.0  28.8 -18.0 0.448 0.183 0.261 0.109
 1982 063   793   506 DORM   1.000 1.000 0.398   0.0  28.3 -18.0 0.552 0.105 0.257 0.086
 1982 064   794   507 DORM   1.000 1.000 0.402   0.0  27.4 -18.0 0.547 0.106 0.260 0.087
 1982 065   795   508 DORM   1.000 1.000 0.406   0.0  27.0 -18.0 0.542 0.107 0.262 0.089
 1982 066   796   509 DORM   1.000 1.000 0.411   0.0  27.2 -18.0 0.536 0.108 0.265 0.091
 1982 067   797   510 DORM   1.000 1.000 0.415   0.0  27.6 -18.0 0.531 0.109 0.268 0.092
 1982 068   798   511 DORM   1.000 1.000 0.419   0.0  28.1 -18.0 0.525 0.110 0.271 0.094
 1982 069   799   512 DORM   1.000 1.000 0.423   0.0  29.0 -18.0 0.519 0.111 0.273 0.096
 1982 070   800   513 DORM   1.000 1.000 0.427   0.0  29.5 -18.0 0.514 0.112 0.276 0.098
 1982 071   801   514 DORM   1.000 1.000 0.432   0.0  29.6 -18.0 0.508 0.113 0.279 0.100
 1982 072   802   515 DORM   1.000 1.000 0.436   0.0  29.5 -18.0 0.503 0.114 0.281 0.101
 1982 073   803   516 DORM   1.000 1.000 0.440   0.0  29.2 -18.0 0.498 0.115 0.284 0.103
 1982 074   804   517 DORM   1.000 1.000 0.444   0.0  28.6 -18.0 0.493 0.116 0.287 0.104
 1982 075   805   518 DORM   1.000 1.000 0.448   0.0  28.3 -18.0 0.488 0.117 0.289 0.106
 1982 076   806   519 DORM   1.000 1.000 0.453   0.0  28.3 -18.0 0.482 0.118 0.292 0.108
 1982 077   807   520 DORM   1.000 1.000 0.457   0.0  28.4 -18.0 0.477 0.119 0.295 0.109
 1982 078   808   521 DORM   1.000 1.000 0.461   0.0  28.4 -18.0 0.472 0.119 0.297 0.111
 1982 079   809   522 DORM   1.000 1.000 0.465   0.0  28.6 -18.0 0.467 0.120 0.300 0.112
 1982 080   810   523 DORM   1.000 1.000 0.470   0.0  28.5 -18.0 0.463 0.121 0.303 0.114
 1982 081   811   524 DORM   1.000 1.000 0.474   0.0  28.3 -18.0 0.367 0.098 0.245 0.291
 1982 082   812   525 DORM   1.000 1.000 0.475   0.0  28.2 -18.0 0.453 0.127 0.306 0.114
 1982 083   813   526 DORM   1.000 1.000 0.475   0.0  28.5 -18.0 0.378 0.112 0.258 0.252
 1982 084   814   527 DORM   1.000 1.000 0.475   0.0  28.9 -18.0 0.433 0.136 0.299 0.133
 1982 085   815   528 DORM   1.000 1.000 0.475   0.0  29.4 -18.0 0.401 0.133 0.280 0.186
 1982 086   816   529 DORM   1.000 1.000 0.475   0.0  29.2 -18.0 0.435 0.151 0.306 0.108
 1982 087   817   530 DORM   1.000 1.000 0.475   0.0  28.2 -18.0 0.282 0.100 0.199 0.420
 1982 088   818   531 DORM   1.000 1.000 0.475   0.0  27.0 -18.0 0.316 0.115 0.224 0.345
 1982 089   819   532 DORM   1.000 1.000 0.475   0.0  26.0 -18.0 0.280 0.105 0.200 0.415
 1982 090   820   533 DORM   1.000 1.000 0.475   0.0  25.1 -18.0 0.424 0.166 0.306 0.104
 1982 091   821   534 DORM   1.000 1.000 0.475   0.0  25.1 -18.0 0.517 0.101 0.301 0.081
 1982 092   822   535 DORM   1.000 1.000 0.475   0.0  25.8 -18.0 0.514 0.102 0.301 0.083
 1982 093   823   536 DORM   1.000 1.000 0.475   0.0  26.3 -18.0 0.511 0.103 0.301 0.084
 1982 094   824   537 DORM   1.000 1.000 0.475   0.0  26.4 -18.0 0.508 0.104 0.302 0.086
 1982 095   825   538 DORM   1.000 1.000 0.475   0.0  26.5 -18.0 0.504 0.106 0.302 0.088
 1982 096   826   539 DORM   1.000 1.000 0.475   0.0  26.5 -18.0 0.501 0.107 0.302 0.090
 1982 097   827   540 DORM   1.000 1.000 0.475   0.0  26.2 -18.0 0.499 0.108 0.302 0.091
 1982 098   828   541 DORM   1.000 1.000 0.475   0.0  26.1 -18.0 0.496 0.108 0.303 0.093
 1982 099   829   542 DORM   1.000 1.000 0.475   0.0  26.2 -18.0 0.494 0.109 0.303 0.094
 1982 100   830   543 DORM   1.000 1.000 0.475   0.0  26.0 -18.0 0.491 0.110 0.303 0.095
 1982 101   831   544 DORM   1.000 1.000 0.475   0.0  25.9 -18.0 0.488 0.111 0.303 0.097
 1982 102   832   545 DORM   1.000 1.000 0.475   0.0  26.4 -18.0 0.485 0.112 0.304 0.099
 1982 103   833   546 DORM   1.000 1.000 0.475   0.0  27.2 -18.0 0.482 0.114 0.304 0.101
 1982 104   834   547 DORM   1.000 1.000 0.475   0.0  27.0 -18.0 0.480 0.114 0.304 0.102
 1982 105   835   548 DORM   1.000 1.000 0.475   0.0  26.4 -18.0 0.478 0.115 0.304 0.103
 1982 106   836   549 DORM   1.000 1.000 0.475   0.0  25.0 -18.0 0.477 0.115 0.304 0.104
 1982 107   837   550 DORM   1.000 1.000 0.475   0.0  23.6 -18.0 0.475 0.116 0.304 0.104
 1982 108   838   551 DORM   1.000 1.000 0.475   0.0  22.3 -18.0 0.473 0.117 0.305 0.106
 1982 109   839   552 DORM   1.000 1.000 0.475   0.0  22.4 -18.0 0.470 0.118 0.305 0.107
 1982 110   840   553 DORM   1.000 1.000 0.475   0.0  22.9 -18.0 0.468 0.119 0.305 0.109
 1982 111   841   554 DORM   1.000 1.000 0.475   0.0  23.4 -18.0 0.466 0.119 0.305 0.110
 1982 112   842   555 DORM   1.000 1.000 0.475   0.0  23.7 -18.0 0.464 0.120 0.305 0.111
 1982 113   843   556 DORM   1.000 1.000 0.475   0.0  23.7 -18.0 0.461 0.121 0.306 0.112
 1982 114   844   557 DORM   1.000 1.000 0.475   0.0  23.6 -18.0 0.459 0.122 0.306 0.114
 1982 115   845   558 DORM   1.000 1.000 0.475   0.0  23.7 -18.0 0.374 0.101 0.251 0.274
 1982 116   846   559 DORM   1.000 1.000 0.475   0.0  24.0 -18.0 0.402 0.112 0.271 0.216
 1982 117   847   560 DORM   1.000 1.000 0.475   0.0  23.9 -18.0 0.450 0.130 0.306 0.114
 1982 118   848   561 DORM   1.000 1.000 0.475   0.0  23.8 -18.0 0.447 0.134 0.306 0.113
 1982 119   849   562 DORM   1.000 1.000 0.475   0.0  23.7 -18.0 0.351 0.109 0.242 0.298
 1982 120   850   563 DORM   1.000 1.000 0.475   0.0  23.6 -18.0 0.441 0.142 0.306 0.110
 1982 121   851   564 DORM   1.000 1.000 0.475   0.0  23.9 -18.0 0.368 0.123 0.257 0.252
 1982 122   852   565 DORM   1.000 1.000 0.475   0.0  23.9 -18.0 0.353 0.122 0.248 0.277
 1982 123   853   566 DORM   1.000 1.000 0.475   0.0  23.5 -18.0 0.275 0.096 0.194 0.435
 1982 124   854   567 DORM   1.000 1.000 0.475   0.0  23.0 -18.0 0.369 0.132 0.261 0.238
 1982 125   855   568 DORM   1.000 1.000 0.475   0.0  22.3 -18.0 0.299 0.109 0.213 0.379
 1982 126   856   569 DORM   1.000 1.000 0.475   0.0  21.8 -18.0 0.368 0.139 0.264 0.229
 1982 127   857   570 DORM   1.000 1.000 0.475   0.0  22.0 -18.0 0.327 0.127 0.236 0.311
 1982 128   858   571 DORM   1.000 1.000 0.475   0.0  22.3 -18.0 0.422 0.169 0.306 0.103
 1982 129   859   572 DORM   1.000 1.000 0.475   0.0  22.7 -18.0 0.419 0.173 0.306 0.102
 1982 130   860   573 DORM   1.000 1.000 0.475   0.0  23.0 -18.0 0.374 0.159 0.275 0.191
 1982 131   861   574 DORM   1.000 1.000 0.475   0.0  23.0 -18.0 0.340 0.149 0.252 0.259
 1982 132   862   575 DORM   1.000 1.000 0.475   0.0  23.0 -18.0 0.410 0.185 0.306 0.099
 1982 133   863   576 DORM   1.000 1.000 0.475   0.0  23.8 -18.0 0.406 0.190 0.306 0.098
 1982 134   864   577 DORM   1.000 1.000 0.475   0.0  23.6 -18.0 0.404 0.193 0.306 0.097
 1982 135   865   578 DORM   1.000 1.000 0.475   0.0  23.0 -18.0 0.358 0.173 0.272 0.196
 1982 136   866   579 DORM   1.000 1.000 0.475   0.0  22.4 -18.0 0.401 0.198 0.306 0.096
 1982 137   867   580 DORM   1.000 1.000 0.475   0.0  22.5 -18.0 0.397 0.203 0.306 0.094
 1982 138   868   581 DORM   1.000 1.000 0.475   0.0  21.6 -18.0 0.395 0.206 0.306 0.094
 1982 139   869   582 DORM   1.000 1.000 0.475   0.0  21.0 -18.0 0.393 0.208 0.306 0.093
 1982 140   870   583 DORM   1.000 1.000 0.475   0.0  20.7 -18.0 0.343 0.183 0.268 0.206
 1982 141   871   584 DORM   1.000 1.000 0.475   0.0  20.2 -18.0 0.391 0.210 0.306 0.092
 1982 142   872   585 DORM   1.000 1.000 0.475   0.0  18.7 -18.0 0.390 0.212 0.306 0.092
 1982 143   873   586 DORM   1.000 1.000 0.475   0.0  18.2 -18.0 0.389 0.214 0.306 0.091
 1982 144   874   587 DORM   1.000 1.000 0.475   0.0  18.2 -18.0 0.387 0.216 0.306 0.091
 1982 145   875   588 DORM   1.000 1.000 0.475   0.0  18.4 -18.0 0.386 0.218 0.306 0.090
 1982 146   876   589 DORM   1.000 1.000 0.475   0.0  18.6 -18.0 0.286 0.164 0.228 0.322
 1982 147   877   590 DORM   1.000 1.000 0.475   0.0  18.4 -18.0 0.519 0.101 0.301 0.080
 1982 148   878   591 DORM   1.000 1.000 0.475   0.0  17.9 -18.0 0.518 0.101 0.301 0.080
 1982 149   879   592 DORM   1.000 1.000 0.475   0.0  17.7 -18.0 0.517 0.102 0.301 0.080
 1982 150   880   593 DORM   1.000 1.000 0.475   0.0  17.6 -18.0 0.516 0.102 0.301 0.081
 1982 151   881   594 DORM   1.000 1.000 0.475   0.0  17.9 -18.0 0.515 0.102 0.301 0.082
 1982 152   882   595 DORM   1.000 1.000 0.475   0.0  18.5 -18.0 0.514 0.103 0.301 0.082
 1982 153   883   596 DORM   1.000 1.000 0.475   0.0  19.7 -18.0 0.512 0.103 0.301 0.084
 1982 154   884   597 DORM   1.000 1.000 0.475   0.0  20.3 -18.0 0.510 0.104 0.302 0.084
 1982 155   885   598 DORM   1.000 1.000 0.475   0.0  20.8 -18.0 0.508 0.105 0.302 0.086
 1982 156   886   599 DORM   1.000 1.000 0.475   0.0  20.9 -18.0 0.507 0.105 0.302 0.086
 1982 157   887   600 DORM   1.000 1.000 0.475   0.0  20.6 -18.0 0.506 0.106 0.302 0.087
 1982 158   888   601 DORM   1.000 1.000 0.475   0.0  19.7 -18.0 0.504 0.106 0.302 0.088
 1982 159   889   602 DORM   1.000 1.000 0.475   0.0  19.3 -18.0 0.502 0.107 0.302 0.089
 1982 160   890   603 DORM   1.000 1.000 0.475   0.0  19.3 -18.0 0.500 0.107 0.302 0.090
 1982 161   891   604 DORM   1.000 1.000 0.475   0.0  19.2 -18.0 0.499 0.108 0.302 0.091
 1982 162   892   605 DORM   1.000 1.000 0.475   0.0  19.4 -18.0 0.497 0.108 0.303 0.092
 1982 163   893   606 DORM   1.000 1.000 0.475   0.0  19.4 -18.0 0.496 0.109 0.303 0.092
 1982 164   894   607 DORM   1.000 1.000 0.475   0.0  19.4 -18.0 0.494 0.109 0.303 0.093
 1982 165   895   608 DORM   1.000 1.000 0.475   0.0  19.6 -18.0 0.492 0.110 0.303 0.095
 1982 166   896   609 DORM   1.000 1.000 0.475   0.0  19.1 -18.0 0.492 0.110 0.303 0.095
 1982 167   897   610 DORM   1.000 1.000 0.475   0.0  18.4 -18.0 0.491 0.111 0.303 0.095
 1982 168   898   611 DORM   1.000 1.000 0.475   0.0  18.0 -18.0 0.490 0.111 0.303 0.096
 1982 169   899   612 DORM   1.000 1.000 0.475   0.0  17.9 -18.0 0.489 0.111 0.303 0.097
 1982 170   900   613 DORM   1.000 1.000 0.475   0.0  17.7 -18.0 0.486 0.112 0.303 0.098
 1982 171   901   614 DORM   1.000 1.000 0.475   0.0  17.9 -18.0 0.485 0.113 0.304 0.099
 1982 172   902   615 DORM   1.000 1.000 0.475   0.0  18.0 -18.0 0.485 0.113 0.304 0.099
 1982 173   903   616 DORM   1.000 1.000 0.475   0.0  17.7 -18.0 0.484 0.113 0.304 0.099
 1982 174   904   617 DORM   1.000 1.000 0.475   0.0  16.8 -18.0 0.484 0.113 0.304 0.100
 1982 175   905   618 DORM   1.000 1.000 0.475   0.0  15.6 -18.0 0.483 0.113 0.304 0.100
 1982 176   906   619 DORM   1.000 1.000 0.475   0.0  14.9 -18.0 0.483 0.113 0.304 0.100
 1982 177   907   620 DORM   1.000 1.000 0.475   0.0  14.5 -18.0 0.482 0.114 0.304 0.100
 1982 178   908   621 DORM   1.000 1.000 0.475   0.0  14.6 -18.0 0.481 0.114 0.304 0.101
 1982 179   909   622 DORM   1.000 1.000 0.475   0.0  15.5 -18.0 0.479 0.115 0.304 0.102
 1982 180   910   623 DORM   1.000 1.000 0.475   0.0  16.1 -18.0 0.479 0.115 0.304 0.102
 1982 181   911   624 DORM   1.000 1.000 0.475   0.0  16.7 -18.0 0.478 0.115 0.304 0.103
 1982 182   912   625 DORM   1.000 1.000 0.475   0.0  17.2 -18.0 0.477 0.115 0.304 0.103
 1982 183   913   626 DORM   1.000 1.000 0.475   0.0  18.0 -18.0 0.476 0.116 0.304 0.104
 1982 184   914   627 DORM   1.000 1.000 0.475   0.0  18.7 -18.0 0.474 0.116 0.304 0.105
 1982 185   915   628 DORM   1.000 1.000 0.475   0.0  19.5 -18.0 0.472 0.117 0.305 0.106
 1982 186   916   629 DORM   1.000 1.000 0.475   0.0  19.7 -18.0 0.471 0.118 0.305 0.107
 1982 187   917   630 DORM   1.000 1.000 0.475   0.0  19.8 -18.0 0.470 0.118 0.305 0.108
 1982 188   918   631 DORM   1.000 1.000 0.475   0.0  19.2 -18.0 0.469 0.118 0.305 0.108
 1982 189   919   632 DORM   1.000 1.000 0.475   0.0  17.6 -18.0 0.468 0.118 0.305 0.108
 1982 190   920   633 DORM   1.000 1.000 0.475   0.0  16.1 -18.0 0.468 0.119 0.305 0.109
 1982 191   921   634 DORM   1.000 1.000 0.475   0.0  15.7 -18.0 0.467 0.119 0.305 0.109
 1982 192   922   635 DORM   1.000 1.000 0.475   0.0  15.4 -18.0 0.467 0.119 0.305 0.109
 1982 193   923   636 DORM   1.000 1.000 0.475   0.0  15.5 -18.0 0.465 0.119 0.305 0.110
 1982 194   924   637 DORM   1.000 1.000 0.475   0.0  15.7 -18.0 0.465 0.120 0.305 0.110
 1982 195   925   638 DORM   1.000 1.000 0.475   0.0  15.4 -18.0 0.465 0.120 0.305 0.110
 1982 196   926   639 DORM   1.000 1.000 0.475   0.0  15.4 -18.0 0.464 0.120 0.305 0.111
 1982 197   927   640 DORM   1.000 1.000 0.475   0.0  15.9 -18.0 0.463 0.120 0.305 0.111
 1982 198   928   641 DORM   1.000 1.000 0.475   0.0  16.5 -18.0 0.461 0.121 0.306 0.113
 1982 199   929   642 DORM   1.000 1.000 0.475   0.0  16.9 -18.0 0.460 0.121 0.306 0.113
 1982 200   930   643 DORM   1.000 1.000 0.475   0.0  17.8 -18.0 0.459 0.122 0.306 0.113
 1982 201   931   644 DORM   1.000 1.000 0.475   0.0  18.6 -18.0 0.457 0.122 0.306 0.115
 1982 202   932   645 DORM   1.000 1.000 0.475   0.0  19.8 -18.0 0.454 0.124 0.306 0.115
 1982 203   933   646 DORM   1.000 1.000 0.475   0.0  19.8 -18.0 0.518 0.101 0.301 0.080
 1982 204   934   647 DORM   1.000 1.000 0.475   0.0  19.9 -18.0 0.516 0.102 0.301 0.081
 1982 205   935   648 DORM   1.000 1.000 0.475   0.0  19.8 -18.0 0.515 0.102 0.301 0.081
 1982 206   936   649 DORM   1.000 1.000 0.475   0.0  19.6 -18.0 0.514 0.103 0.301 0.082
 1982 207   937   650 DORM   1.000 1.000 0.475   0.0  19.1 -18.0 0.511 0.104 0.301 0.084
 1982 208   938   651 DORM   1.000 1.000 0.475   0.0  19.8 -18.0 0.483 0.099 0.286 0.131
 1982 209   939   652 DORM   1.000 1.000 0.475   0.0  20.7 -18.0 0.507 0.105 0.302 0.086
 1982 210   940   653 DORM   1.000 1.000 0.475   0.0  20.7 -18.0 0.506 0.105 0.302 0.087
 1982 211   941   654 DORM   1.000 1.000 0.475   0.0  19.9 -18.0 0.506 0.105 0.302 0.087
 1982 212   942   655 DORM   1.000 1.000 0.475   0.0  18.7 -18.0 0.505 0.106 0.302 0.087
 1982 213   943   656 DORM   1.000 1.000 0.475   0.0  17.4 -18.0 0.505 0.106 0.302 0.088
 1982 214   944   657 DORM   1.000 1.000 0.475   0.0  15.7 -18.0 0.504 0.106 0.302 0.088
 1982 215   945   658 DORM   1.000 1.000 0.475   0.0  15.2 -18.0 0.504 0.106 0.302 0.088
 1982 216   946   659 DORM   1.000 1.000 0.475   0.0  15.4 -18.0 0.503 0.106 0.302 0.088
 1982 217   947   660 DORM   1.000 1.000 0.475   0.0  16.0 -18.0 0.502 0.107 0.302 0.089
 1982 218   948   661 DORM   1.000 1.000 0.475   0.0  17.2 -18.0 0.500 0.108 0.302 0.090
 1982 219   949   662 DORM   1.000 1.000 0.475   0.0  17.7 -18.0 0.499 0.108 0.302 0.090
 1982 220   950   663 DORM   1.000 1.000 0.475   0.0  18.4 -18.0 0.498 0.108 0.303 0.091
 1982 221   951   664 DORM   1.000 1.000 0.475   0.0  18.5 -18.0 0.497 0.109 0.303 0.092
 1982 222   952   665 DORM   1.000 1.000 0.475   0.0  18.0 -18.0 0.496 0.109 0.303 0.092
 1982 223   953   666 DORM   1.000 1.000 0.475   0.0  17.2 -18.0 0.495 0.109 0.303 0.093
 1982 224   954   667 DORM   1.000 1.000 0.475   0.0  17.9 -18.0 0.494 0.110 0.303 0.094
 1982 225   955   668 DORM   1.000 1.000 0.475   0.0  18.5 -18.0 0.492 0.110 0.303 0.095
 1982 226   956   669 DORM   1.000 1.000 0.475   0.0  19.8 -18.0 0.489 0.111 0.303 0.096
 1982 227   957   670 DORM   1.000 1.000 0.475   0.0  20.4 -18.0 0.488 0.111 0.303 0.097
 1982 228   958   671 DORM   1.000 1.000 0.475   0.0  20.2 -18.0 0.380 0.087 0.236 0.298
 1982 229   959   672 DORM   1.000 1.000 0.475   0.0  19.4 -18.0 0.347 0.080 0.216 0.358
 1982 230   960   673 DORM   1.000 1.000 0.475   0.0  18.1 -18.0 0.487 0.112 0.303 0.098
 1982 231   961   674 DORM   1.000 1.000 0.475   0.0  16.2 -18.0 0.487 0.112 0.303 0.098
 1982 232   962   675 DORM   1.000 1.000 0.475   0.0  15.8 -18.0 0.486 0.112 0.303 0.098
 1982 233   963   676 DORM   1.000 1.000 0.475   0.0  16.3 -18.0 0.484 0.113 0.304 0.099
 1982 234   964   677 DORM   1.000 1.000 0.475   0.0  16.2 -18.0 0.484 0.113 0.304 0.099
 1982 235   965   678 DORM   1.000 1.000 0.475   0.0  16.5 -18.0 0.483 0.113 0.304 0.100
 1982 236   966   679 DORM   1.000 1.000 0.475   0.0  18.1 -18.0 0.481 0.114 0.304 0.101
 1982 237   967   680 DORM   1.000 1.000 0.475   0.0  20.3 -18.0 0.477 0.115 0.304 0.103
 1982 238   968   681 DORM   1.000 1.000 0.475   0.0  22.1 -18.0 0.474 0.117 0.304 0.105
 1982 239   969   682 DORM   1.000 1.000 0.475   0.0  24.0 -18.0 0.471 0.117 0.305 0.107
 1982 240   970   683 DORM   1.000 1.000 0.475   0.0  26.2 -18.0 0.468 0.119 0.305 0.109
 1982 241   971   684 DORM   1.000 1.000 0.475   0.0  27.2 -18.0 0.400 0.103 0.262 0.235
 1982 242   972   685 DORM   1.000 1.000 0.475   0.0  26.1 -18.0 0.343 0.089 0.226 0.342
 1982 243   973   686 DORM   1.000 1.000 0.475   0.0  24.2 -18.0 0.212 0.055 0.140 0.594
 1982 244   974   687 DORM   1.000 1.000 0.475   0.0  22.9 -18.0 0.257 0.067 0.170 0.506
 1982 245   975   688 DORM   1.000 1.000 0.475   0.0  21.7 -18.0 0.459 0.122 0.306 0.113
 1982 246   976   689 DORM   1.000 1.000 0.475   0.0  21.2 -18.0 0.378 0.101 0.253 0.268
 1982 247   977   690 DORM   1.000 1.000 0.475   0.0  22.2 -18.0 0.453 0.126 0.306 0.115
 1982 248   978   691 DORM   1.000 1.000 0.475   0.0  23.2 -18.0 0.451 0.129 0.306 0.114
 1982 249   979   692 DORM   1.000 1.000 0.475   0.0  23.3 -18.0 0.340 0.098 0.231 0.331
 1982 250   980   693 DORM   1.000 1.000 0.475   0.0  23.2 -18.0 0.243 0.072 0.166 0.520
 1982 251   981   694 DORM   1.000 1.000 0.475   0.0  22.4 -18.0 0.446 0.135 0.306 0.112
 1982 252   982   695 DORM   1.000 1.000 0.475   0.0  21.6 -18.0 0.365 0.114 0.252 0.269
 1982 253   983   696 DORM   1.000 1.000 0.475   0.0  22.3 -18.0 0.305 0.100 0.212 0.383
 1982 254   984   697 DORM   1.000 1.000 0.475   0.0  23.0 -18.0 0.437 0.148 0.306 0.109
 1982 255   985   698 DORM   1.000 1.000 0.475   0.0  23.2 -18.0 0.402 0.140 0.283 0.174
 1982 256   986   699 DORM   1.000 1.000 0.475   0.0  23.6 -18.0 0.245 0.088 0.173 0.494
 1982 257   987   700 DORM   1.000 1.000 0.475   0.0  24.0 -18.0 0.429 0.159 0.306 0.106
 1982 258   988   701 DORM   1.000 1.000 0.475   0.0  24.3 -18.0 0.331 0.129 0.238 0.302
 1982 259   989   702 DORM   1.000 1.000 0.475   0.0  25.6 -18.0 0.432 0.086 0.252 0.230
 1982 260   990   703 DORM   1.000 1.000 0.475   0.0  26.6 -18.0 0.513 0.103 0.301 0.083
 1982 261   991   704 DORM   1.000 1.000 0.475   0.0  26.0 -18.0 0.512 0.103 0.301 0.083
 1982 262   992   705 DORM   1.000 1.000 0.475   0.0  24.5 -18.0 0.511 0.104 0.301 0.084
 1982 263   993   706 DORM   1.000 1.000 0.475   0.0  22.6 -18.0 0.510 0.104 0.302 0.085
 1982 264   994   707 DORM   1.000 1.000 0.474   0.0  20.3 -18.0 0.320 0.066 0.189 0.425
 1982 265   995   708 DORM   1.000 1.000 0.470   0.0  18.9 -18.0 0.509 0.106 0.299 0.087
 1982 266   996   709 DORM   1.000 1.000 0.465   0.0  18.8 -18.0 0.446 0.093 0.260 0.201
 1982 267   997   710 DORM   1.000 1.000 0.461   0.0  19.5 -18.0 0.342 0.073 0.198 0.387
 1982 268   998   711 DORM   1.000 1.000 0.457   0.0  20.2 -18.0 0.508 0.109 0.292 0.091
 1982 269   999   712 DORM   1.000 1.000 0.453   0.0  21.0 -18.0 0.421 0.092 0.241 0.246
 1982 270  1000   713 DORM   1.000 1.000 0.448   0.0  20.8 -18.0 0.267 0.058 0.151 0.524
 1982 271  1001   714 DORM   1.000 1.000 0.444   0.0  20.2 -18.0 0.231 0.051 0.129 0.590
 1982 272  1002   715 DORM   1.000 1.000 0.440   0.0  19.2 -18.0 0.348 0.077 0.193 0.381
 1982 273  1003   716 DORM   1.000 1.000 0.436   0.0  18.6 -18.0 0.258 0.057 0.142 0.544
 1982 274  1004   717 DORM   1.000 1.000 0.432   0.0  18.0 -18.0 0.510 0.114 0.278 0.098
 1982 275  1005   718 DORM   1.000 1.000 0.427   0.0  18.3 -18.0 0.509 0.115 0.276 0.099
 1982 276  1006   719 DORM   1.000 1.000 0.423   0.0  19.1 -18.0 0.276 0.063 0.148 0.513
 1982 277  1007   720 DORM   1.000 1.000 0.419   0.0  20.5 -18.0 0.226 0.052 0.120 0.602
 1982 278  1008   721 DORM   1.000 1.000 0.415   0.0  20.8 -18.0 0.252 0.058 0.133 0.556
 1982 279  1009   722 DORM   1.000 1.000 0.411   0.0  20.8 -18.0 0.510 0.119 0.267 0.104
 1982 280  1010   723 DORM   1.000 1.000 0.406   0.0  20.6 -18.0 0.510 0.119 0.265 0.105
 1982 281  1011   724 DORM   1.000 1.000 0.402   0.0  20.2 -18.0 0.322 0.076 0.166 0.436
 1982 282  1012   725 DORM   1.000 1.000 0.398   0.0  19.6 -18.0 0.466 0.110 0.238 0.185
 1982 283  1013   726 DORM   1.000 1.000 0.394   0.0  19.9 -18.0 0.278 0.066 0.141 0.515
 1982 284  1014   727 DORM   1.000 1.000 0.390   0.0  20.7 -18.0 0.351 0.085 0.176 0.387
 1982 285  1015   728 DORM   1.000 1.000 0.386   0.0  21.2 -18.0 0.313 0.076 0.156 0.454
 1982 286  1016   729 DORM   1.000 1.000 0.382   0.0  21.2 -18.0 0.323 0.079 0.159 0.439
 1982 287  1017   730 DORM   1.000 1.000 0.378   0.0  21.1 -18.0 0.511 0.126 0.250 0.113
 1982 288  1018   731 DORM   1.000 1.000 0.374   0.0  21.0 -18.0 0.511 0.127 0.248 0.115
 1982 289  1019   732 DORM   1.000 1.000 0.370   0.0  21.1 -18.0 0.327 0.082 0.157 0.433
 1982 290  1020   733 DORM   1.000 1.000 0.366   0.0  22.2 -18.0 0.429 0.109 0.206 0.256
 1982 291  1021   734 DORM   1.000 1.000 0.362   0.0  22.9 -18.0 0.386 0.099 0.183 0.332
 1982 292  1022   735 DORM   1.000 1.000 0.358   0.0  23.6 -18.0 0.508 0.131 0.239 0.121
 1982 293  1023   736 DORM   1.000 1.000 0.354   0.0  24.8 -18.0 0.281 0.074 0.132 0.513
 1982 294  1024   737 DORM   1.000 1.000 0.350   0.0  25.4 -18.0 0.399 0.106 0.186 0.309
 1982 295  1025   738 DORM   1.000 1.000 0.346   0.0  24.7 -18.0 0.283 0.076 0.132 0.509
 1982 296  1026   739 DORM   1.000 1.000 0.342   0.0  25.1 -18.0 0.501 0.141 0.232 0.127
 1982 297  1027   740 DORM   1.000 1.000 0.339   0.0  24.9 -18.0 0.215 0.062 0.099 0.624
 1982 298  1028   741 DORM   1.000 1.000 0.335   0.0  23.8 -18.0 0.498 0.148 0.227 0.126
 1982 299  1029   742 DORM   1.000 1.000 0.331   0.0  23.0 -18.0 0.242 0.074 0.110 0.574
 1982 300  1030   743 DORM   1.000 1.000 0.327   0.0  22.9 -18.0 0.192 0.061 0.087 0.660
 1982 301  1031   744 DORM   1.000 1.000 0.324   0.0  22.9 -18.0 0.238 0.078 0.107 0.577
 1982 302  1032   745 DORM   1.000 1.000 0.320   0.0  23.8 -18.0 0.310 0.105 0.138 0.447
 1982 303  1033   746 DORM   1.000 1.000 0.316   0.0  24.4 -18.0 0.228 0.080 0.101 0.592
 1982 304  1034   747 DORM   1.000 1.000 0.313   0.0  24.7 -18.0 0.197 0.071 0.087 0.645
 1982 305  1035   748 DORM   1.000 1.000 0.309   0.0  24.6 -18.0 0.486 0.180 0.213 0.120
 1982 306  1036   749 DORM   1.000 1.000 0.306   0.0  24.5 -18.0 0.484 0.186 0.211 0.119
 1982 307  1037   750 DORM   1.000 1.000 0.302   0.0  23.8 -18.0 0.439 0.174 0.191 0.196
 1982 308  1038   751 DORM   1.000 1.000 0.299   0.0  23.1 -18.0 0.177 0.071 0.076 0.675
 1982 309  1039   752 DORM   1.000 1.000 0.295   0.0  22.0 -18.0 0.205 0.084 0.088 0.623
 1982 310  1040   753 DORM   1.000 1.000 0.292   0.0  21.5 -18.0 0.174 0.073 0.074 0.679
 1982 311  1041   754 DORM   1.000 1.000 0.289   0.0  21.3 -18.0 0.178 0.077 0.075 0.669
 1982 312  1042   755 DORM   1.000 1.000 0.286   0.0  20.8 -18.0 0.146 0.064 0.061 0.728
 1982 313  1043   756 DORM   1.000 1.000 0.282   0.0  20.8 -18.0 0.261 0.117 0.109 0.513
 1982 314  1044   757 DORM   1.000 1.000 0.279   0.0  21.7 -18.0 0.472 0.217 0.196 0.114
 1982 315  1045   758 DORM   1.000 1.000 0.276   0.0  22.0 -18.0 0.601 0.118 0.188 0.093
 1982 316  1046   759 DORM   1.000 1.000 0.273   0.0  21.7 -18.0 0.601 0.119 0.186 0.094
 1982 317  1047   760 DORM   1.000 1.000 0.270   0.0  21.8 -18.0 0.601 0.120 0.184 0.095
 1982 318  1048   761 DORM   1.000 1.000 0.267   0.0  21.4 -18.0 0.600 0.120 0.183 0.097
 1982 319  1049   762 DORM   1.000 1.000 0.264   0.0  21.0 -18.0 0.599 0.121 0.182 0.098
 1982 320  1050   763 DORM   1.000 1.000 0.262   0.0  20.9 -18.0 0.598 0.122 0.180 0.100
 1982 321  1051   764 DORM   1.000 1.000 0.259   0.0  21.2 -18.0 0.596 0.124 0.179 0.101
 1982 322  1052   765 DORM   1.000 1.000 0.256   0.0  21.8 -18.0 0.594 0.125 0.178 0.103
 1982 323  1053   766 DORM   1.000 1.000 0.253   0.0  22.9 -18.0 0.591 0.126 0.177 0.106
 1982 324  1054   767 DORM   1.000 1.000 0.251   0.0  23.8 -18.0 0.589 0.128 0.175 0.108
 1982 325  1055   768 DORM   1.000 1.000 0.248   0.0  24.2 -18.0 0.588 0.129 0.174 0.109
 1982 326  1056   769 DORM   1.000 1.000 0.246   0.0  24.8 -18.0 0.586 0.130 0.173 0.111
 1982 327  1057   770 DORM   1.000 1.000 0.244   0.0  25.1 -18.0 0.584 0.131 0.172 0.113
 1982 328  1058   771 DORM   1.000 1.000 0.241   0.0  25.5 -18.0 0.582 0.132 0.171 0.115
 1982 329  1059   772 DORM   1.000 1.000 0.239   0.0  26.2 -18.0 0.579 0.134 0.170 0.117
 1982 330  1060   773 DORM   1.000 1.000 0.237   0.0  27.3 -18.0 0.576 0.135 0.169 0.119
 1982 331  1061   774 DORM   1.000 1.000 0.235   0.0  28.1 -18.0 0.572 0.137 0.169 0.122
 1982 332  1062   775 DORM   1.000 1.000 0.233   0.0  29.1 -18.0 0.568 0.139 0.168 0.125
 1982 333  1063   776 DORM   1.000 1.000 0.231   0.0  29.9 -18.0 0.564 0.141 0.167 0.128
 1982 334  1064   777 DORM   1.000 1.000 0.229   0.0  30.3 -18.0 0.560 0.142 0.167 0.130
 1982 335  1065   778 DORM   1.000 1.000 0.227   0.0  29.9 -18.0 0.557 0.144 0.166 0.133
 1982 336  1066   779 DORM   1.000 1.000 0.226   0.0  29.0 -18.0 0.555 0.145 0.166 0.135
 1982 337  1067   780 DORM   1.000 1.000 0.224   0.0  27.6 -18.0 0.553 0.146 0.165 0.136
 1982 338  1068   781 DORM   1.000 1.000 0.222   0.0  26.0 -18.0 0.551 0.147 0.164 0.137
 1982 339  1069   782 DORM   1.000 1.000 0.221   0.0  24.7 -18.0 0.549 0.148 0.164 0.139
 1982 340  1070   783 DORM   1.000 1.000 0.220   0.0  24.2 -18.0 0.546 0.153 0.163 0.138
 1982 341  1071   784 DORM   1.000 1.000 0.218   0.0  23.8 -18.0 0.544 0.156 0.162 0.137
 1982 342  1072   785 DORM   1.000 1.000 0.217   0.0  24.0 -18.0 0.541 0.160 0.162 0.137
 1982 343  1073   786 DORM   1.000 1.000 0.216   0.0  24.8 -18.0 0.625 0.123 0.153 0.098
 1982 344  1074   787 DORM   1.000 1.000 0.215   0.0  25.8 -18.0 0.622 0.125 0.153 0.100
 1982 345  1075   788 DORM   1.000 1.000 0.214   0.0  27.3 -18.0 0.617 0.126 0.153 0.103
 1982 346  1076   789 DORM   1.000 1.000 0.213   0.0  29.0 -18.0 0.613 0.128 0.153 0.106
 1982 347  1077   790 DORM   1.000 1.000 0.212   0.0  30.3 -18.0 0.608 0.130 0.153 0.108
 1982 348  1078   791 DORM   1.000 1.000 0.212   0.0  30.8 -18.0 0.604 0.131 0.153 0.111
 1982 349  1079   792 DORM   1.000 1.000 0.211   0.0  30.3 -18.0 0.601 0.133 0.153 0.113
 1982 350  1080   793 DORM   1.000 1.000 0.211   0.0  29.3 -18.0 0.597 0.134 0.153 0.115
 1982 351  1081   794 DORM   1.000 1.000 0.210   0.0  28.6 -18.0 0.593 0.136 0.154 0.118
 1982 352  1082   795 DORM   1.000 1.000 0.210   0.0  28.2 -18.0 0.588 0.137 0.154 0.121
 1982 353  1083   796 DORM   1.000 1.000 0.210   0.0  28.1 -18.0 0.584 0.139 0.154 0.123
 1982 354  1084   797 DORM   1.000 1.000 0.210   0.0  28.4 -18.0 0.580 0.140 0.155 0.125
 1982 355  1085   798 DORM   1.000 1.000 0.210   0.0  28.5 -18.0 0.577 0.141 0.155 0.127
 1982 356  1086   799 DORM   1.000 1.000 0.210   0.0  28.5 -18.0 0.572 0.143 0.155 0.130
 1982 357  1087   800 DORM   1.000 1.000 0.210   0.0  28.0 -18.0 0.569 0.144 0.156 0.132
 1982 358  1088   801 DORM   1.000 1.000 0.210   0.0  27.9 -18.0 0.565 0.145 0.156 0.134
 1982 359  1089   802 DORM   1.000 1.000 0.210   0.0  28.0 -18.0 0.560 0.147 0.157 0.136
 1982 360  1090   803 DORM   1.000 1.000 0.211   0.0  28.9 -18.0 0.555 0.148 0.158 0.139
 1982 361  1091   804 DORM   1.000 1.000 0.211   0.0  29.8 -18.0 0.550 0.153 0.158 0.139
 1982 362  1092   805 DORM   1.000 1.000 0.212   0.0  31.0 -18.0 0.544 0.161 0.159 0.137
 1982 363  1093   806 DORM   1.000 1.000 0.212   0.0  32.0 -18.0 0.537 0.169 0.159 0.135
 1982 364  1094   807 DORM   1.000 1.000 0.213   0.0  32.8 -18.0 0.472 0.158 0.142 0.228
 1982 365  1095   808 DORM   1.000 1.000 0.214   0.0  32.8 -18.0 0.343 0.121 0.104 0.432
 1983 001  1096   809 DORM   1.000 1.000 0.215   0.0  32.4 -18.0 0.340 0.126 0.105 0.429
 1983 002  1097   810 DORM   1.000 1.000 0.216   0.0  31.5 -18.0 0.324 0.125 0.102 0.449
 1983 003  1098   811 DORM   1.000 1.000 0.217   0.0  30.6 -18.0 0.349 0.141 0.111 0.400
 1983 004  1099   812 DORM   1.000 1.000 0.218   0.0  29.2 -18.0 0.503 0.212 0.162 0.123
 1983 005  1100   813 DORM   1.000 1.000 0.220   0.0  27.8 -18.0 0.499 0.217 0.163 0.121
 1983 006  1101   814 DORM   1.000 1.000 0.221   0.0  26.9 -18.0 0.623 0.123 0.156 0.098
 1983 007  1102   815 DORM   1.000 1.000 0.222   0.0  26.6 -18.0 0.618 0.124 0.158 0.100
 1983 008  1103   816 DORM   1.000 1.000 0.224   0.0  26.5 -18.0 0.613 0.126 0.159 0.102
 1983 009  1104   817 DORM   1.000 1.000 0.226   0.0  27.0 -18.0 0.608 0.127 0.160 0.105
 1983 010  1105   818 DORM   1.000 1.000 0.227   0.0  28.4 -18.0 0.603 0.128 0.162 0.107
 1983 011  1106   819 DORM   1.000 1.000 0.229   0.0  29.8 -18.0 0.597 0.130 0.163 0.110
 1983 012  1107   820 DORM   1.000 1.000 0.231   0.0  30.6 -18.0 0.592 0.131 0.165 0.112
 1983 013  1108   821 DORM   1.000 1.000 0.233   0.0  31.3 -18.0 0.586 0.133 0.166 0.115
 1983 014  1109   822 DORM   1.000 1.000 0.235   0.0  31.5 -18.0 0.581 0.134 0.168 0.117
 1983 015  1110   823 DORM   1.000 1.000 0.237   0.0  31.4 -18.0 0.575 0.136 0.169 0.120
 1983 016  1111   824 DORM   1.000 1.000 0.239   0.0  30.8 -18.0 0.570 0.137 0.171 0.122
 1983 017  1112   825 DORM   1.000 1.000 0.241   0.0  30.0 -18.0 0.565 0.138 0.173 0.124
 1983 018  1113   826 DORM   1.000 1.000 0.244   0.0  29.2 -18.0 0.532 0.132 0.166 0.170
 1983 019  1114   827 DORM   1.000 1.000 0.246   0.0  28.8 -18.0 0.412 0.104 0.131 0.353
 1983 020  1115   828 DORM   1.000 1.000 0.248   0.0  28.3 -18.0 0.348 0.090 0.113 0.449
 1983 021  1116   829 DORM   1.000 1.000 0.251   0.0  28.5 -18.0 0.339 0.089 0.112 0.460
 1983 022  1117   830 DORM   1.000 1.000 0.253   0.0  29.5 -18.0 0.343 0.092 0.116 0.449
 1983 023  1118   831 DORM   1.000 1.000 0.256   0.0  30.5 -18.0 0.509 0.143 0.175 0.173
 1983 024  1119   832 DORM   1.000 1.000 0.259   0.0  31.2 -18.0 0.525 0.157 0.185 0.132
 1983 025  1120   833 DORM   1.000 1.000 0.262   0.0  32.0 -18.0 0.482 0.154 0.173 0.191
 1983 026  1121   834 DORM   1.000 1.000 0.264   0.0  32.1 -18.0 0.511 0.173 0.188 0.128
 1983 027  1122   835 DORM   1.000 1.000 0.267   0.0  31.4 -18.0 0.460 0.164 0.173 0.203
 1983 028  1123   836 DORM   1.000 1.000 0.270   0.0  30.8 -18.0 0.402 0.151 0.154 0.293
 1983 029  1124   837 DORM   1.000 1.000 0.273   0.0  30.3 -18.0 0.491 0.195 0.193 0.121
 1983 030  1125   838 DORM   1.000 1.000 0.276   0.0  29.8 -18.0 0.434 0.182 0.174 0.210
 1983 031  1126   839 DORM   1.000 1.000 0.279   0.0  29.2 -18.0 0.394 0.171 0.161 0.274
 1983 032  1127   840 DORM   1.000 1.000 0.282   0.0  28.6 -18.0 0.265 0.119 0.111 0.506
 1983 033  1128   841 DORM   1.000 1.000 0.286   0.0  27.6 -18.0 0.470 0.217 0.200 0.113
 1983 034  1129   842 DORM   1.000 1.000 0.289   0.0  26.9 -18.0 0.595 0.117 0.195 0.093
 1983 035  1130   843 DORM   1.000 1.000 0.292   0.0  26.4 -18.0 0.590 0.118 0.197 0.095
 1983 036  1131   844 DORM   1.000 1.000 0.295   0.0  26.5 -18.0 0.584 0.119 0.199 0.097
 1983 037  1132   845 DORM   1.000 1.000 0.299   0.0  27.0 -18.0 0.579 0.120 0.202 0.099
 1983 038  1133   846 DORM   1.000 1.000 0.302   0.0  27.9 -18.0 0.573 0.122 0.204 0.101
 1983 039  1134   847 DORM   1.000 1.000 0.306   0.0  28.7 -18.0 0.567 0.123 0.206 0.104
 1983 040  1135   848 DORM   1.000 1.000 0.309   0.0  29.5 -18.0 0.561 0.124 0.209 0.106
 1983 041  1136   849 DORM   1.000 1.000 0.313   0.0  30.1 -18.0 0.556 0.125 0.211 0.108
 1983 042  1137   850 DORM   1.000 1.000 0.316   0.0  30.6 -18.0 0.550 0.126 0.214 0.110
 1983 043  1138   851 DORM   1.000 1.000 0.320   0.0  30.0 -18.0 0.545 0.127 0.216 0.112
 1983 044  1139   852 DORM   1.000 1.000 0.324   0.0  29.2 -18.0 0.541 0.128 0.218 0.113
 1983 045  1140   853 DORM   1.000 1.000 0.327   0.0  27.9 -18.0 0.536 0.128 0.221 0.114
 1983 046  1141   854 DORM   1.000 1.000 0.331   0.0  26.7 -18.0 0.532 0.129 0.223 0.116
 1983 047  1142   855 DORM   1.000 1.000 0.335   0.0  25.4 -18.0 0.475 0.117 0.204 0.204
 1983 048  1143   856 DORM   1.000 1.000 0.339   0.0  25.0 -18.0 0.271 0.068 0.118 0.543
 1983 049  1144   857 DORM   1.000 1.000 0.342   0.0  25.4 -18.0 0.285 0.073 0.127 0.515
 1983 050  1145   858 DORM   1.000 1.000 0.346   0.0  26.5 -18.0 0.350 0.091 0.159 0.401
 1983 051  1146   859 DORM   1.000 1.000 0.350   0.0  28.0 -18.0 0.340 0.090 0.159 0.411
 1983 052  1147   860 DORM   1.000 1.000 0.354   0.0  28.9 -18.0 0.462 0.124 0.220 0.194
 1983 053  1148   861 DORM   1.000 1.000 0.358   0.0  29.7 -18.0 0.494 0.141 0.240 0.125
 1983 054  1149   862 DORM   1.000 1.000 0.362   0.0  30.1 -18.0 0.402 0.123 0.201 0.274
 1983 055  1150   863 DORM   1.000 1.000 0.366   0.0  29.6 -18.0 0.427 0.137 0.218 0.218
 1983 056  1151   864 DORM   1.000 1.000 0.370   0.0  28.3 -18.0 0.457 0.153 0.238 0.152
 1983 057  1152   865 DORM   1.000 1.000 0.374   0.0  27.7 -18.0 0.469 0.165 0.249 0.117
 1983 058  1153   866 DORM   1.000 1.000 0.378   0.0  26.7 -18.0 0.464 0.169 0.252 0.115
 1983 059  1154   867 DORM   1.000 1.000 0.382   0.0  25.4 -18.0 0.273 0.103 0.151 0.474
 1983 060  1155   868 DORM   1.000 1.000 0.386   0.0  24.8 -18.0 0.287 0.112 0.162 0.440
 1983 061  1156   869 DORM   1.000 1.000 0.390   0.0  24.5 -18.0 0.450 0.181 0.258 0.110
 1983 062  1157   870 DORM   1.000 1.000 0.394   0.0  24.4 -18.0 0.550 0.109 0.255 0.086
 1983 063  1158   871 DORM   1.000 1.000 0.398   0.0  24.7 -18.0 0.545 0.109 0.258 0.088
 1983 064  1159   872 DORM   1.000 1.000 0.402   0.0  25.4 -18.0 0.540 0.110 0.260 0.089
 1983 065  1160   873 DORM   1.000 1.000 0.406   0.0  25.8 -18.0 0.535 0.111 0.263 0.091
 1983 066  1161   874 DORM   1.000 1.000 0.411   0.0  26.6 -18.0 0.530 0.112 0.265 0.093
 1983 067  1162   875 DORM   1.000 1.000 0.415   0.0  27.3 -18.0 0.525 0.113 0.268 0.094
 1983 068  1163   876 DORM   1.000 1.000 0.419   0.0  28.4 -18.0 0.519 0.114 0.271 0.096
 1983 069  1164   877 DORM   1.000 1.000 0.423   0.0  28.6 -18.0 0.515 0.114 0.273 0.098
 1983 070  1165   878 DORM   1.000 1.000 0.427   0.0  27.7 -18.0 0.511 0.115 0.276 0.099
 1983 071  1166   879 DORM   1.000 1.000 0.432   0.0  27.1 -18.0 0.506 0.115 0.279 0.100
 1983 072  1167   880 DORM   1.000 1.000 0.436   0.0  26.1 -18.0 0.502 0.116 0.281 0.101
 1983 073  1168   881 DORM   1.000 1.000 0.440   0.0  24.8 -18.0 0.498 0.116 0.284 0.102
 1983 074  1169   882 DORM   1.000 1.000 0.444   0.0  24.4 -18.0 0.494 0.117 0.286 0.103
 1983 075  1170   883 DORM   1.000 1.000 0.448   0.0  24.7 -18.0 0.489 0.117 0.289 0.104
 1983 076  1171   884 DORM   1.000 1.000 0.453   0.0  24.8 -18.0 0.484 0.118 0.292 0.106
 1983 077  1172   885 DORM   1.000 1.000 0.457   0.0  24.5 -18.0 0.370 0.091 0.227 0.312
 1983 078  1173   886 DORM   1.000 1.000 0.461   0.0  24.4 -18.0 0.404 0.100 0.252 0.244
 1983 079  1174   887 DORM   1.000 1.000 0.465   0.0  23.8 -18.0 0.337 0.085 0.213 0.365
 1983 080  1175   888 DORM   1.000 1.000 0.470   0.0  23.5 -18.0 0.288 0.073 0.185 0.454
 1983 081  1176   889 DORM   1.000 1.000 0.474   0.0  23.4 -18.0 0.467 0.119 0.305 0.110
 1983 082  1177   890 DORM   1.000 1.000 0.475   0.0  23.7 -18.0 0.338 0.088 0.223 0.352
 1983 083  1178   891 DORM   1.000 1.000 0.475   0.0  24.0 -18.0 0.323 0.085 0.214 0.377
 1983 084  1179   892 DORM   1.000 1.000 0.475   0.0  24.6 -18.0 0.290 0.077 0.193 0.440
 1983 085  1180   893 DORM   1.000 1.000 0.475   0.0  25.3 -18.0 0.324 0.088 0.218 0.370
 1983 086  1181   894 DORM   1.000 1.000 0.475   0.0  26.0 -18.0 0.451 0.129 0.306 0.114
 1983 087  1182   895 DORM   1.000 1.000 0.475   0.0  26.4 -18.0 0.447 0.134 0.306 0.113
[...]
 2016 142 13290 13003 DORM   1.000 1.000 0.475   0.0  13.6 -18.0 0.361 0.253 0.306 0.080
 2016 143 13291 13004 DORM   1.000 1.000 0.475   0.0  13.9 -18.0 0.361 0.253 0.306 0.080
 2016 144 13292 13005 DORM   1.000 1.000 0.475   0.0  13.8 -18.0 0.361 0.253 0.306 0.080
 2016 145 13293 13006 DORM   1.000 1.000 0.475   0.0  14.0 -18.0 0.361 0.253 0.306 0.080
 2016 146 13294 13007 DORM   1.000 1.000 0.475   0.0  14.8 -18.0 0.361 0.253 0.306 0.080
 2016 147 13295 13008 DORM   1.000 1.000 0.475   0.0  14.7 -18.0 0.361 0.253 0.306 0.080
 2016 148 13296 13009 DORM   1.000 1.000 0.475   0.0  15.1 -18.0 0.361 0.253 0.306 0.080
 2016 149 13297 13010 DORM   1.000 1.000 0.475   0.0  15.9 -18.0 0.361 0.253 0.306 0.080
 2016 150 13298 13011 DORM   1.000 1.000 0.475   0.0  16.5 -18.0 0.361 0.253 0.306 0.080
 2016 151 13299 13012 DORM   1.000 1.000 0.475   0.0  16.5 -18.0 0.361 0.253 0.306 0.080
 2016 152 13300 13013 DORM   1.000 1.000 0.475   0.0  16.6 -18.0 0.361 0.253 0.306 0.080
 2016 153 13301 13014 DORM   1.000 1.000 0.475   0.0  16.3 -18.0 0.361 0.253 0.306 0.080
 2016 154 13302 13015 DORM   1.000 1.000 0.475   0.0  15.6 -18.0 0.361 0.253 0.306 0.080
 2016 155 13303 13016 DORM   1.000 1.000 0.475   0.0  14.7 -18.0 0.361 0.253 0.306 0.080
 2016 156 13304 13017 DORM   1.000 1.000 0.475   0.0  13.5 -18.0 0.361 0.253 0.306 0.080
 2016 157 13305 13018 DORM   1.000 1.000 0.475   0.0  12.6 -18.0 0.361 0.253 0.306 0.080
 2016 158 13306 13019 DORM   1.000 1.000 0.475   0.0  11.9 -18.0 0.361 0.253 0.306 0.080
 2016 159 13307 13020 DORM   1.000 1.000 0.475   0.0  11.9 -18.0 0.361 0.253 0.306 0.080
 2016 160 13308 13021 DORM   1.000 1.000 0.475   0.0  11.6 -18.0 0.361 0.253 0.306 0.080
 2016 161 13309 13022 DORM   1.000 1.000 0.475   0.0  11.6 -18.0 0.361 0.253 0.306 0.080
 2016 162 13310 13023 DORM   1.000 1.000 0.475   0.0  11.4 -18.0 0.361 0.253 0.306 0.080
 2016 163 13311 13024 DORM   1.000 1.000 0.475   0.0  11.3 -18.0 0.361 0.253 0.306 0.080
 2016 164 13312 13025 DORM   1.000 1.000 0.475   0.0  10.9 -18.0 0.361 0.253 0.306 0.080
 2016 165 13313 13026 DORM   1.000 1.000 0.475   0.0  11.4 -18.0 0.361 0.253 0.306 0.080
 2016 166 13314 13027 DORM   1.000 1.000 0.475   0.0  11.9 -18.0 0.361 0.253 0.306 0.080
 2016 167 13315 13028 DORM   1.000 1.000 0.475   0.0  12.8 -18.0 0.361 0.253 0.306 0.080
 2016 168 13316 13029 DORM   1.000 1.000 0.475   0.0  13.3 -18.0 0.361 0.253 0.306 0.080
 2016 169 13317 13030 DORM   1.000 1.000 0.475   0.0  13.2 -18.0 0.361 0.253 0.306 0.080
 2016 170 13318 13031 DORM   1.000 1.000 0.475   0.0  12.8 -18.0 0.361 0.253 0.306 0.080
 2016 171 13319 13032 DORM   1.000 1.000 0.475   0.0  12.4 -18.0 0.361 0.253 0.306 0.080
 2016 172 13320 13033 DORM   1.000 1.000 0.475   0.0  11.6 -18.0 0.361 0.253 0.306 0.080
 2016 173 13321 13034 DORM   1.000 1.000 0.475   0.0  11.6 -18.0 0.361 0.253 0.306 0.080
 2016 174 13322 13035 DORM   1.000 1.000 0.475   0.0  12.1 -18.0 0.361 0.253 0.306 0.080
 2016 175 13323 13036 DORM   1.000 1.000 0.475   0.0  12.6 -18.0 0.361 0.253 0.306 0.080
 2016 176 13324 13037 DORM   1.000 1.000 0.475   0.0  12.8 -18.0 0.361 0.253 0.306 0.080
 2016 177 13325 13038 DORM   1.000 1.000 0.475   0.0  13.4 -18.0 0.361 0.253 0.306 0.080
 2016 178 13326 13039 DORM   1.000 1.000 0.475   0.0  13.6 -18.0 0.361 0.253 0.306 0.080
 2016 179 13327 13040 DORM   1.000 1.000 0.475   0.0  14.1 -18.0 0.361 0.253 0.306 0.080
 2016 180 13328 13041 DORM   1.000 1.000 0.475   0.0  14.6 -18.0 0.361 0.253 0.306 0.080
 2016 181 13329 13042 DORM   1.000 1.000 0.475   0.0  15.8 -18.0 0.361 0.253 0.306 0.080
 2016 182 13330 13043 DORM   1.000 1.000 0.475   0.0  16.9 -18.0 0.361 0.253 0.306 0.080
 2016 183 13331 13044 DORM   1.000 1.000 0.475   0.0  17.9 -18.0 0.361 0.253 0.306 0.080
 2016 184 13332 13045 DORM   1.000 1.000 0.475   0.0  18.7 -18.0 0.361 0.253 0.306 0.080
 2016 185 13333 13046 DORM   1.000 1.000 0.475   0.0  19.8 -18.0 0.361 0.253 0.306 0.080
 2016 186 13334 13047 DORM   1.000 1.000 0.475   0.0  20.6 -18.0 0.361 0.253 0.306 0.080
 2016 187 13335 13048 DORM   1.000 1.000 0.475   0.0  20.6 -18.0 0.361 0.253 0.306 0.080
 2016 188 13336 13049 DORM   1.000 1.000 0.475   0.0  19.8 -18.0 0.361 0.253 0.306 0.080
 2016 189 13337 13050 DORM   1.000 1.000 0.475   0.0  18.6 -18.0 0.361 0.253 0.306 0.080
 2016 190 13338 13051 DORM   1.000 1.000 0.475   0.0  17.2 -18.0 0.361 0.253 0.306 0.080
 2016 191 13339 13052 DORM   1.000 1.000 0.475   0.0  15.2 -18.0 0.361 0.253 0.306 0.080
 2016 192 13340 13053 DORM   1.000 1.000 0.475   0.0  14.2 -18.0 0.361 0.253 0.306 0.080
 2016 193 13341 13054 DORM   1.000 1.000 0.475   0.0  14.1 -18.0 0.361 0.253 0.306 0.080
 2016 194 13342 13055 DORM   1.000 1.000 0.475   0.0  14.1 -18.0 0.361 0.253 0.306 0.080
 2016 195 13343 13056 DORM   1.000 1.000 0.475   0.0  13.6 -18.0 0.361 0.253 0.306 0.080
 2016 196 13344 13057 DORM   1.000 1.000 0.475   0.0  13.8 -18.0 0.361 0.253 0.306 0.080
 2016 197 13345 13058 DORM   1.000 1.000 0.475   0.0  13.9 -18.0 0.361 0.253 0.306 0.080
 2016 198 13346 13059 DORM   1.000 1.000 0.475   0.0  13.3 -18.0 0.361 0.253 0.306 0.080
 2016 199 13347 13060 DORM   1.000 1.000 0.475   0.0  12.2 -18.0 0.361 0.253 0.306 0.080
 2016 200 13348 13061 DORM   1.000 1.000 0.475   0.0  11.7 -18.0 0.361 0.253 0.306 0.080
 2016 201 13349 13062 DORM   1.000 1.000 0.475   0.0  11.0 -18.0 0.361 0.253 0.306 0.080
 2016 202 13350 13063 DORM   1.000 1.000 0.475   0.0  10.3 -18.0 0.361 0.253 0.306 0.080
 2016 203 13351 13064 DORM   1.000 1.000 0.475   0.0  10.3 -18.0 0.361 0.253 0.306 0.080
 2016 204 13352 13065 DORM   1.000 1.000 0.475   0.0  11.0 -18.0 0.361 0.253 0.306 0.080
 2016 205 13353 13066 DORM   1.000 1.000 0.475   0.0  11.9 -18.0 0.361 0.253 0.306 0.080
 2016 206 13354 13067 DORM   1.000 1.000 0.475   0.0  12.4 -18.0 0.361 0.253 0.306 0.080
 2016 207 13355 13068 DORM   1.000 1.000 0.475   0.0  12.8 -18.0 0.361 0.253 0.306 0.080
 2016 208 13356 13069 DORM   1.000 1.000 0.475   0.0  13.4 -18.0 0.361 0.253 0.306 0.080
 2016 209 13357 13070 DORM   1.000 1.000 0.475   0.0  13.3 -18.0 0.361 0.253 0.306 0.080
 2016 210 13358 13071 DORM   1.000 1.000 0.475   0.0  12.5 -18.0 0.361 0.253 0.306 0.080
 2016 211 13359 13072 DORM   1.000 1.000 0.475   0.0  12.7 -18.0 0.361 0.253 0.306 0.080
 2016 212 13360 13073 DORM   1.000 1.000 0.475   0.0  13.3 -18.0 0.361 0.253 0.306 0.080
 2016 213 13361 13074 DORM   1.000 1.000 0.475   0.0  14.8 -18.0 0.361 0.253 0.306 0.080
 2016 214 13362 13075 DORM   1.000 1.000 0.475   0.0  16.2 -18.0 0.361 0.253 0.306 0.080
 2016 215 13363 13076 DORM   1.000 1.000 0.475   0.0  16.6 -18.0 0.361 0.253 0.306 0.080
 2016 216 13364 13077 DORM   1.000 1.000 0.475   0.0  16.1 -18.0 0.361 0.253 0.306 0.080
 2016 217 13365 13078 DORM   1.000 1.000 0.475   0.0  16.1 -18.0 0.361 0.253 0.306 0.080
 2016 218 13366 13079 DORM   1.000 1.000 0.475   0.0  15.5 -18.0 0.361 0.253 0.306 0.080
 2016 219 13367 13080 DORM   1.000 1.000 0.475   0.0  14.6 -18.0 0.361 0.253 0.306 0.080
 2016 220 13368 13081 DORM   1.000 1.000 0.475   0.0  14.8 -18.0 0.361 0.253 0.306 0.080
 2016 221 13369 13082 DORM   1.000 1.000 0.475   0.0  15.3 -18.0 0.361 0.253 0.306 0.080
 2016 222 13370 13083 DORM   1.000 1.000 0.475   0.0  15.3 -18.0 0.361 0.253 0.306 0.080
 2016 223 13371 13084 DORM   1.000 1.000 0.475   0.0  14.1 -18.0 0.361 0.253 0.306 0.080
 2016 224 13372 13085 DORM   1.000 1.000 0.475   0.0  14.0 -18.0 0.361 0.253 0.306 0.080
 2016 225 13373 13086 DORM   1.000 1.000 0.475   0.0  14.6 -18.0 0.361 0.253 0.306 0.080
 2016 226 13374 13087 DORM   1.000 1.000 0.475   0.0  15.5 -18.0 0.361 0.253 0.306 0.080
 2016 227 13375 13088 DORM   1.000 1.000 0.475   0.0  16.0 -18.0 0.361 0.253 0.306 0.080
 2016 228 13376 13089 DORM   1.000 1.000 0.475   0.0  17.5 -18.0 0.361 0.253 0.306 0.080
 2016 229 13377 13090 DORM   1.000 1.000 0.475   0.0  18.2 -18.0 0.361 0.253 0.306 0.080
 2016 230 13378 13091 DORM   1.000 1.000 0.475   0.0  18.5 -18.0 0.361 0.253 0.306 0.080
 2016 231 13379 13092 DORM   1.000 1.000 0.475   0.0  18.2 -18.0 0.361 0.253 0.306 0.080
 2016 232 13380 13093 DORM   1.000 1.000 0.475   0.0  18.0 -18.0 0.361 0.253 0.306 0.080
 2016 233 13381 13094 DORM   1.000 1.000 0.475   0.0  17.0 -18.0 0.361 0.253 0.306 0.080
 2016 234 13382 13095 DORM   1.000 1.000 0.475   0.0  15.6 -18.0 0.361 0.253 0.306 0.080
 2016 235 13383 13096 DORM   1.000 1.000 0.475   0.0  15.3 -18.0 0.361 0.253 0.306 0.080
 2016 236 13384 13097 DORM   1.000 1.000 0.475   0.0  15.7 -18.0 0.361 0.253 0.306 0.080
 2016 237 13385 13098 DORM   1.000 1.000 0.475   0.0  16.3 -18.0 0.361 0.253 0.306 0.080
 2016 238 13386 13099 DORM   1.000 1.000 0.475   0.0  17.3 -18.0 0.361 0.253 0.306 0.080
 2016 239 13387 13100 DORM   1.000 1.000 0.475   0.0  19.4 -18.0 0.361 0.253 0.306 0.080
 2016 240 13388 13101 DORM   1.000 1.000 0.475   0.0  20.7 -18.0 0.361 0.253 0.306 0.080
 2016 241 13389 13102 DORM   1.000 1.000 0.475   0.0  20.2 -18.0 0.361 0.253 0.306 0.080
 2016 242 13390 13103 DORM   1.000 1.000 0.475   0.0  19.1 -18.0 0.361 0.253 0.306 0.080
 2016 243 13391 13104 DORM   1.000 1.000 0.475   0.0  18.2 -18.0 0.361 0.253 0.306 0.080
 2016 244 13392 13105 DORM   1.000 1.000 0.475   0.0  17.0 -18.0 0.361 0.253 0.306 0.080
 2016 245 13393 13106 DORM   1.000 1.000 0.475   0.0  15.5 -18.0 0.361 0.253 0.306 0.080
 2016 246 13394 13107 DORM   1.000 1.000 0.475   0.0  14.5 -18.0 0.361 0.253 0.306 0.080
 2016 247 13395 13108 DORM   1.000 1.000 0.475   0.0  13.8 -18.0 0.361 0.253 0.306 0.080
 2016 248 13396 13109 DORM   1.000 1.000 0.475   0.0  13.4 -18.0 0.361 0.253 0.306 0.080
 2016 249 13397 13110 DORM   1.000 1.000 0.475   0.0  13.4 -18.0 0.361 0.253 0.306 0.080
 2016 250 13398 13111 DORM   1.000 1.000 0.475   0.0  13.2 -18.0 0.361 0.253 0.306 0.080
 2016 251 13399 13112 DORM   1.000 1.000 0.475   0.0  13.7 -18.0 0.361 0.253 0.306 0.080
 2016 252 13400 13113 DORM   1.000 1.000 0.475   0.0  14.5 -18.0 0.361 0.253 0.306 0.080
 2016 253 13401 13114 DORM   1.000 1.000 0.475   0.0  15.6 -18.0 0.361 0.253 0.306 0.080
 2016 254 13402 13115 DORM   1.000 1.000 0.475   0.0  17.1 -18.0 0.361 0.253 0.306 0.080
 2016 255 13403 13116 DORM   1.000 1.000 0.475   0.0  17.9 -18.0 0.361 0.253 0.306 0.080
 2016 256 13404 13117 DORM   1.000 1.000 0.475   0.0  18.7 -18.0 0.361 0.253 0.306 0.080
 2016 257 13405 13118 DORM   1.000 1.000 0.475   0.0  19.3 -18.0 0.361 0.253 0.306 0.080
 2016 258 13406 13119 DORM   1.000 1.000 0.475   0.0  18.6 -18.0 0.361 0.253 0.306 0.080
 2016 259 13407 13120 DORM   1.000 1.000 0.475   0.0  16.8 -18.0 0.361 0.253 0.306 0.080
 2016 260 13408 13121 DORM   1.000 1.000 0.475   0.0  16.4 -18.0 0.361 0.253 0.306 0.080
 2016 261 13409 13122 DORM   1.000 1.000 0.475   0.0  16.1 -18.0 0.361 0.253 0.306 0.080
 2016 262 13410 13123 DORM   1.000 1.000 0.475   0.0  16.0 -18.0 0.361 0.253 0.306 0.080
 2016 263 13411 13124 DORM   1.000 1.000 0.475   0.0  16.0 -18.0 0.361 0.253 0.306 0.080
 2016 264 13412 13125 DORM   1.000 1.000 0.474   0.0  16.7 -18.0 0.362 0.253 0.305 0.080
 2016 265 13413 13126 DORM   1.000 1.000 0.470   0.0  17.3 -18.0 0.363 0.254 0.303 0.080
 2016 266 13414 13127 DORM   1.000 1.000 0.465   0.0  18.3 -18.0 0.364 0.255 0.301 0.080
 2016 267 13415 13128 DORM   1.000 1.000 0.461   0.0  18.5 -18.0 0.365 0.256 0.298 0.080
 2016 268 13416 13129 DORM   1.000 1.000 0.457   0.0  18.5 -18.0 0.367 0.257 0.296 0.081
 2016 269 13417 13130 DORM   1.000 1.000 0.453   0.0  17.9 -18.0 0.368 0.258 0.294 0.081
 2016 270 13418 13131 DORM   1.000 1.000 0.448   0.0  17.1 -18.0 0.369 0.258 0.291 0.081
 2016 271 13419 13132 DORM   1.000 1.000 0.444   0.0  16.3 -18.0 0.370 0.259 0.289 0.081
 2016 272 13420 13133 DORM   1.000 1.000 0.440   0.0  16.5 -18.0 0.372 0.260 0.286 0.082
 2016 273 13421 13134 DORM   1.000 1.000 0.436   0.0  16.9 -18.0 0.373 0.261 0.284 0.082
 2016 274 13422 13135 DORM   1.000 1.000 0.432   0.0  17.4 -18.0 0.374 0.262 0.282 0.082
 2016 275 13423 13136 DORM   1.000 1.000 0.427   0.0  18.1 -18.0 0.375 0.263 0.279 0.083
 2016 276 13424 13137 DORM   1.000 1.000 0.423   0.0  18.4 -18.0 0.377 0.264 0.277 0.083
 2016 277 13425 13138 DORM   1.000 1.000 0.419   0.0  18.3 -18.0 0.378 0.264 0.275 0.083
 2016 278 13426 13139 DORM   1.000 1.000 0.415   0.0  18.7 -18.0 0.379 0.265 0.272 0.083
 2016 279 13427 13140 DORM   1.000 1.000 0.411   0.0  19.0 -18.0 0.380 0.266 0.270 0.084
 2016 280 13428 13141 DORM   1.000 1.000 0.406   0.0  19.1 -18.0 0.381 0.267 0.268 0.084
 2016 281 13429 13142 DORM   1.000 1.000 0.402   0.0  19.2 -18.0 0.383 0.268 0.265 0.084
 2016 282 13430 13143 DORM   1.000 1.000 0.398   0.0  18.9 -18.0 0.384 0.269 0.263 0.084
 2016 283 13431 13144 DORM   1.000 1.000 0.394   0.0  19.0 -18.0 0.385 0.270 0.261 0.085
 2016 284 13432 13145 DORM   1.000 1.000 0.390   0.0  19.5 -18.0 0.386 0.270 0.258 0.085
 2016 285 13433 13146 DORM   1.000 1.000 0.386   0.0  20.0 -18.0 0.387 0.271 0.256 0.085
 2016 286 13434 13147 DORM   1.000 1.000 0.382   0.0  20.4 -18.0 0.389 0.272 0.254 0.085
 2016 287 13435 13148 DORM   1.000 1.000 0.378   0.0  21.8 -18.0 0.390 0.273 0.252 0.086
 2016 288 13436 13149 DORM   1.000 1.000 0.374   0.0  22.3 -18.0 0.391 0.274 0.249 0.086
 2016 289 13437 13150 DORM   1.000 1.000 0.370   0.0  22.2 -18.0 0.392 0.275 0.247 0.086
 2016 290 13438 13151 DORM   1.000 1.000 0.366   0.0  22.5 -18.0 0.393 0.275 0.245 0.087
 2016 291 13439 13152 DORM   1.000 1.000 0.362   0.0  22.2 -18.0 0.394 0.276 0.243 0.087
 2016 292 13440 13153 DORM   1.000 1.000 0.358   0.0  20.6 -18.0 0.396 0.277 0.240 0.087
 2016 293 13441 13154 DORM   1.000 1.000 0.354   0.0  19.7 -18.0 0.397 0.278 0.238 0.087
 2016 294 13442 13155 DORM   1.000 1.000 0.350   0.0  19.1 -18.0 0.398 0.279 0.236 0.088
 2016 295 13443 13156 DORM   1.000 1.000 0.346   0.0  18.1 -18.0 0.399 0.279 0.234 0.088
 2016 296 13444 13157 DORM   1.000 1.000 0.342   0.0  17.7 -18.0 0.400 0.280 0.232 0.088
 2016 297 13445 13158 DORM   1.000 1.000 0.339   0.0  18.7 -18.0 0.401 0.281 0.230 0.088
 2016 298 13446 13159 DORM   1.000 1.000 0.335   0.0  19.2 -18.0 0.402 0.282 0.227 0.089
 2016 299 13447 13160 DORM   1.000 1.000 0.331   0.0  19.4 -18.0 0.403 0.282 0.225 0.089
 2016 300 13448 13161 DORM   1.000 1.000 0.327   0.0  19.9 -18.0 0.405 0.283 0.223 0.089
 2016 301 13449 13162 DORM   1.000 1.000 0.324   0.0  19.7 -18.0 0.406 0.284 0.221 0.089
 2016 302 13450 13163 DORM   1.000 1.000 0.320   0.0  18.6 -18.0 0.407 0.285 0.219 0.089
 2016 303 13451 13164 DORM   1.000 1.000 0.316   0.0  18.7 -18.0 0.408 0.285 0.217 0.090
 2016 304 13452 13165 DORM   1.000 1.000 0.313   0.0  19.5 -18.0 0.409 0.286 0.215 0.090
 2016 305 13453 13166 DORM   1.000 1.000 0.309   0.0  20.7 -18.0 0.410 0.287 0.213 0.090
 2016 306 13454 13167 DORM   1.000 1.000 0.306   0.0  21.7 -18.0 0.411 0.288 0.211 0.090
 2016 307 13455 13168 DORM   1.000 1.000 0.302   0.0  22.1 -18.0 0.412 0.288 0.209 0.091
 2016 308 13456 13169 DORM   1.000 1.000 0.299   0.0  22.7 -18.0 0.413 0.289 0.207 0.091
 2016 309 13457 13170 DORM   1.000 1.000 0.295   0.0  23.7 -18.0 0.414 0.290 0.205 0.091
 2016 310 13458 13171 DORM   1.000 1.000 0.292   0.0  23.9 -18.0 0.415 0.290 0.204 0.091
 2016 311 13459 13172 DORM   1.000 1.000 0.289   0.0  24.7 -18.0 0.416 0.291 0.202 0.091
 2016 312 13460 13173 DORM   1.000 1.000 0.286   0.0  26.7 -18.0 0.417 0.292 0.200 0.092
 2016 313 13461 13174 DORM   1.000 1.000 0.282   0.0  26.9 -18.0 0.418 0.292 0.198 0.092
 2016 314 13462 13175 DORM   1.000 1.000 0.279   0.0  26.1 -18.0 0.419 0.293 0.196 0.092
 2016 315 13463 13176 DORM   1.000 1.000 0.276   0.0  25.8 -18.0 0.419 0.294 0.195 0.092
 2016 316 13464 13177 DORM   1.000 1.000 0.273   0.0  24.8 -18.0 0.420 0.294 0.193 0.092
 2016 317 13465 13178 DORM   1.000 1.000 0.270   0.0  23.7 -18.0 0.421 0.295 0.191 0.093
 2016 318 13466 13179 DORM   1.000 1.000 0.267   0.0  23.9 -18.0 0.422 0.295 0.190 0.093
 2016 319 13467 13180 DORM   1.000 1.000 0.264   0.0  24.8 -18.0 0.423 0.296 0.188 0.093
 2016 320 13468 13181 DORM   1.000 1.000 0.262   0.0  25.2 -18.0 0.424 0.297 0.186 0.093
 2016 321 13469 13182 DORM   1.000 1.000 0.259   0.0  25.5 -18.0 0.425 0.297 0.185 0.093
 2016 322 13470 13183 DORM   1.000 1.000 0.256   0.0  24.7 -18.0 0.425 0.298 0.183 0.094
 2016 323 13471 13184 DORM   1.000 1.000 0.253   0.0  23.5 -18.0 0.426 0.298 0.182 0.094
 2016 324 13472 13185 DORM   1.000 1.000 0.251   0.0  22.2 -18.0 0.427 0.299 0.180 0.094
 2016 325 13473 13186 DORM   1.000 1.000 0.248   0.0  21.1 -18.0 0.428 0.299 0.179 0.094
 2016 326 13474 13187 DORM   1.000 1.000 0.246   0.0  20.3 -18.0 0.428 0.300 0.178 0.094
 2016 327 13475 13188 DORM   1.000 1.000 0.244   0.0  20.4 -18.0 0.429 0.300 0.176 0.094
 2016 328 13476 13189 DORM   1.000 1.000 0.241   0.0  21.6 -18.0 0.430 0.301 0.175 0.095
 2016 329 13477 13190 DORM   1.000 1.000 0.239   0.0  22.1 -18.0 0.430 0.301 0.174 0.095
 2016 330 13478 13191 DORM   1.000 1.000 0.237   0.0  22.4 -18.0 0.431 0.302 0.173 0.095
 2016 331 13479 13192 DORM   1.000 1.000 0.235   0.0  23.7 -18.0 0.432 0.302 0.172 0.095
 2016 332 13480 13193 DORM   1.000 1.000 0.233   0.0  24.7 -18.0 0.432 0.302 0.170 0.095
 2016 333 13481 13194 DORM   1.000 1.000 0.231   0.0  24.3 -18.0 0.433 0.303 0.169 0.095
 2016 334 13482 13195 DORM   1.000 1.000 0.229   0.0  24.0 -18.0 0.433 0.303 0.168 0.095
 2016 335 13483 13196 DORM   1.000 1.000 0.227   0.0  24.1 -18.0 0.434 0.304 0.167 0.095
 2016 336 13484 13197 DORM   1.000 1.000 0.226   0.0  24.1 -18.0 0.434 0.304 0.166 0.096
 2016 337 13485 13198 DORM   1.000 1.000 0.224   0.0  24.9 -18.0 0.435 0.304 0.165 0.096
 2016 338 13486 13199 DORM   1.000 1.000 0.222   0.0  25.3 -18.0 0.435 0.305 0.165 0.096
 2016 339 13487 13200 DORM   1.000 1.000 0.221   0.0  25.8 -18.0 0.436 0.305 0.164 0.096
 2016 340 13488 13201 DORM   1.000 1.000 0.220   0.0  26.3 -18.0 0.436 0.305 0.163 0.096
 2016 341 13489 13202 DORM   1.000 1.000 0.218   0.0  26.8 -18.0 0.436 0.305 0.162 0.096
 2016 342 13490 13203 DORM   1.000 1.000 0.217   0.0  26.8 -18.0 0.437 0.306 0.162 0.096
 2016 343 13491 13204 DORM   1.000 1.000 0.216   0.0  26.8 -18.0 0.437 0.306 0.161 0.096
 2016 344 13492 13205 DORM   1.000 1.000 0.215   0.0  26.5 -18.0 0.437 0.306 0.160 0.096
 2016 345 13493 13206 DORM   1.000 1.000 0.214   0.0  26.7 -18.0 0.438 0.306 0.160 0.096
 2016 346 13494 13207 DORM   1.000 1.000 0.213   0.0  26.6 -18.0 0.438 0.306 0.159 0.096
 2016 347 13495 13208 DORM   1.000 1.000 0.212   0.0  27.1 -18.0 0.438 0.307 0.159 0.096
 2016 348 13496 13209 DORM   1.000 1.000 0.212   0.0  27.8 -18.0 0.438 0.307 0.159 0.096
 2016 349 13497 13210 DORM   1.000 1.000 0.211   0.0  27.5 -18.0 0.438 0.307 0.158 0.096
 2016 350 13498 13211 DORM   1.000 1.000 0.211   0.0  26.6 -18.0 0.439 0.307 0.158 0.096
 2016 351 13499 13212 DORM   1.000 1.000 0.210   0.0  26.2 -18.0 0.439 0.307 0.158 0.097
 2016 352 13500 13213 DORM   1.000 1.000 0.210   0.0  25.9 -18.0 0.439 0.307 0.158 0.097
 2016 353 13501 13214 DORM   1.000 1.000 0.210   0.0  26.8 -18.0 0.439 0.307 0.157 0.097
 2016 354 13502 13215 DORM   1.000 1.000 0.210   0.0  27.9 -18.0 0.439 0.307 0.157 0.097
 2016 355 13503 13216 DORM   1.000 1.000 0.210   0.0  28.8 -18.0 0.439 0.307 0.157 0.097
 2016 356 13504 13217 DORM   1.000 1.000 0.210   0.0  29.4 -18.0 0.439 0.307 0.157 0.097
 2016 357 13505 13218 DORM   1.000 1.000 0.210   0.0  29.8 -18.0 0.439 0.307 0.157 0.097
 2016 358 13506 13219 DORM   1.000 1.000 0.210   0.0  29.0 -18.0 0.439 0.307 0.158 0.097
 2016 359 13507 13220 DORM   1.000 1.000 0.210   0.0  28.8 -18.0 0.439 0.307 0.158 0.097
 2016 360 13508 13221 DORM   1.000 1.000 0.211   0.0  29.0 -18.0 0.439 0.307 0.158 0.096
 2016 361 13509 13222 DORM   1.000 1.000 0.211   0.0  28.4 -18.0 0.438 0.307 0.158 0.096
 2016 362 13510 13223 DORM   1.000 1.000 0.212   0.0  26.7 -18.0 0.438 0.307 0.159 0.096
 2016 363 13511 13224 DORM   1.000 1.000 0.212   0.0  26.1 -18.0 0.438 0.307 0.159 0.096
 2016 364 13512 13225 DORM   1.000 1.000 0.213   0.0  25.9 -18.0 0.438 0.306 0.159 0.096
 2016 365 13513 13226 DORM   1.000 1.000 0.214   0.0  25.5 -18.0 0.438 0.306 0.160 0.096
