*SOIL-PLANT-ATMOSPHERE MODULE OUTPUT FILE

*DSSAT Cropping System Model Ver. 4.8.0.027 -release  FEB 01, 2024 15:59:10

*RUN   1        : MARANDU11299              PRFRM048 SPPI7902    1
 MODEL          : PRFRM048 - Brachiaria
 EXPERIMENT     : SPPI7902 BR
 DATA PATH      : C:/DSSAT48/Brachiaria/
 TREATMENT  1   : MARANDU11299              PRFRM048
  
@YEAR DOY   DAS   SRAA  TMAXA  TMINA    REFA    EOAA    EOPA    EOSA    ETAA    EPAA    ESAA    EFAA    EMAA    EOAC    ETAC    EPAC    ESAC    EFAC    EMAC    KCAA    KBSA    KEAA
 1980 002     1  30.00  27.50  13.20 -99.000   6.029   0.000   6.029   6.017   0.000   6.017   0.000   0.000    6.03    6.02    0.00    6.02    0.00    0.00 -99.000 -99.000 -99.000 
 1980 003     2  30.30  30.60  15.20 -99.000   5.959   0.000   5.959   2.798   0.000   2.798   0.000   0.000   11.99    8.82    0.00    8.82    0.00    0.00 -99.000 -99.000 -99.000 
 1980 004     3  29.20  31.00  18.80 -99.000   5.873   0.000   5.873   0.634   0.000   0.634   0.000   0.000   17.86    9.45    0.00    9.45    0.00    0.00 -99.000 -99.000 -99.000 
 1980 005     4  26.40  29.70  18.70 -99.000   5.412   0.000   5.412   0.568   0.000   0.568   0.000   0.000   23.27   10.02    0.00   10.02    0.00    0.00 -99.000 -99.000 -99.000 
 1980 006     5  18.30  31.50  20.80 -99.000   4.116   0.000   4.116   0.513   0.000   0.513   0.000   0.000   27.39   10.53    0.00   10.53    0.00    0.00 -99.000 -99.000 -99.000 
 1980 007     6  27.10  32.80  20.60 -99.000   6.549   0.000   6.549   6.330   0.000   6.330   0.000   0.000   33.94   16.86    0.00   16.86    0.00    0.00 -99.000 -99.000 -99.000 
 1980 008     7  17.20  31.40  21.40 -99.000   4.110   0.000   4.110   2.494   0.000   2.494   0.000   0.000   38.05   19.35    0.00   19.35    0.00    0.00 -99.000 -99.000 -99.000 
 1980 009     8  19.80  29.00  19.10 -99.000   4.357   0.000   4.357   1.934   0.000   1.934   0.000   0.000   42.41   21.29    0.00   21.29    0.00    0.00 -99.000 -99.000 -99.000 
 1980 010     9  25.20  29.90  18.80 -99.000   5.329   0.000   5.329   1.454   0.000   1.454   0.000   0.000   47.73   22.74    0.00   22.74    0.00    0.00 -99.000 -99.000 -99.000 
 1980 011    10  29.30  31.20  19.10 -99.000   6.058   0.000   6.058   1.017   0.000   1.017   0.000   0.000   53.79   23.76    0.00   23.76    0.00    0.00 -99.000 -99.000 -99.000 
 1980 012    11  29.90  29.50  17.90 -99.000   6.021   0.000   6.021   0.879   0.000   0.879   0.000   0.000   59.81   24.64    0.00   24.64    0.00    0.00 -99.000 -99.000 -99.000 
 1980 013    12  29.40  30.50  19.10 -99.000   6.022   0.000   6.022   0.785   0.000   0.785   0.000   0.000   65.83   25.42    0.00   25.42    0.00    0.00 -99.000 -99.000 -99.000 
 1980 014    13  29.70  31.80  19.10 -99.000   6.050   0.000   6.050   0.565   0.000   0.565   0.000   0.000   71.88   25.99    0.00   25.99    0.00    0.00 -99.000 -99.000 -99.000 
 1980 015    14  29.20  29.90  18.70 -99.000   5.872   0.000   5.872   0.418   0.000   0.418   0.000   0.000   77.76   26.41    0.00   26.41    0.00    0.00 -99.000 -99.000 -99.000 
 1980 016    15  28.20  30.80  20.20 -99.000   5.848   0.000   5.848   0.393   0.000   0.393   0.000   0.000   83.61   26.80    0.00   26.80    0.00    0.00 -99.000 -99.000 -99.000 
 1980 017    16  24.00  32.20  20.70 -99.000   5.220   0.000   5.220   0.372   0.000   0.372   0.000   0.000   88.83   27.17    0.00   27.17    0.00    0.00 -99.000 -99.000 -99.000 
 1980 018    17  21.40  32.20  21.80 -99.000   4.758   0.000   4.758   0.353   0.000   0.353   0.000   0.000   93.58   27.52    0.00   27.52    0.00    0.00 -99.000 -99.000 -99.000 
 1980 019    18  25.70  32.80  20.60 -99.000   5.476   0.000   5.476   1.037   0.000   1.037   0.000   0.000   99.06   28.56    0.00   28.56    0.00    0.00 -99.000 -99.000 -99.000 
 1980 020    19  26.70  28.30  18.60 -99.000   5.454   0.000   5.454   1.200   0.000   1.200   0.000   0.000  104.51   29.76    0.00   29.76    0.00    0.00 -99.000 -99.000 -99.000 
 1980 021    20  27.20  32.90  18.50 -99.000   5.578   0.000   5.578   0.921   0.000   0.921   0.000   0.000  110.09   30.68    0.00   30.68    0.00    0.00 -99.000 -99.000 -99.000 
 1980 022    21  26.00  35.80  19.90 -99.000   5.474   0.000   5.474   0.667   0.000   0.667   0.000   0.000  115.56   31.35    0.00   31.35    0.00    0.00 -99.000 -99.000 -99.000 
 1980 023    22  20.70  36.40  23.20 -99.000   4.810   0.000   4.810   2.315   0.000   2.315   0.000   0.000  120.37   33.66    0.00   33.66    0.00    0.00 -99.000 -99.000 -99.000 
 1980 024    23  19.60  28.00  19.20 -99.000   4.345   0.000   4.345   4.345   0.000   4.345   0.000   0.000  124.72   38.01    0.00   38.01    0.00    0.00 -99.000 -99.000 -99.000 
 1980 025    24  29.40  27.80  13.70 -99.000   5.781   0.000   5.781   4.131   0.000   4.131   0.000   0.000  130.50   42.14    0.00   42.14    0.00    0.00 -99.000 -99.000 -99.000 
 1980 026    25  29.40  32.50  16.50 -99.000   5.979   0.000   5.979   1.811   0.000   1.811   0.000   0.000  136.48   43.95    0.00   43.95    0.00    0.00 -99.000 -99.000 -99.000 
 1980 027    26  23.30  32.60  18.70 -99.000   5.087   0.000   5.087   1.247   0.000   1.247   0.000   0.000  141.57   45.20    0.00   45.20    0.00    0.00 -99.000 -99.000 -99.000 
 1980 028    27  23.90  28.60  19.20 -99.000   4.974   0.000   4.974   1.014   0.000   1.014   0.000   0.000  146.54   46.21    0.00   46.21    0.00    0.00 -99.000 -99.000 -99.000 
 1980 029    28  28.30  31.40  17.60 -99.000   5.751   0.000   5.751   0.877   0.000   0.877   0.000   0.000  152.29   47.09    0.00   47.09    0.00    0.00 -99.000 -99.000 -99.000 
 1980 030    29  22.10  34.70  20.80 -99.000   4.884   0.000   4.884   0.784   0.000   0.784   0.000   0.000  157.18   47.87    0.00   47.87    0.00    0.00 -99.000 -99.000 -99.000 
 1980 031    30  17.50  29.70  21.80 -99.000   3.885   0.000   3.885   1.040   0.000   1.040   0.000   0.000  161.06   48.91    0.00   48.91    0.00    0.00 -99.000 -99.000 -99.000 
 1980 032    31  25.20  29.80  20.20 -99.000   5.266   0.000   5.266   0.736   0.000   0.736   0.000   0.000  166.33   49.65    0.00   49.65    0.00    0.00 -99.000 -99.000 -99.000 
 1980 033    32  26.70  29.30  16.60 -99.000   5.311   0.000   5.311   0.679   0.000   0.679   0.000   0.000  171.64   50.33    0.00   50.33    0.00    0.00 -99.000 -99.000 -99.000 
 1980 034    33  26.50  30.70  20.10 -99.000   5.537   0.000   5.537   0.633   0.000   0.633   0.000   0.000  177.17   50.96    0.00   50.96    0.00    0.00 -99.000 -99.000 -99.000 
 1980 035    34  22.60  32.30  20.10 -99.000   4.875   0.000   4.875   0.595   0.000   0.595   0.000   0.000  182.05   51.56    0.00   51.56    0.00    0.00 -99.000 -99.000 -99.000 
 1980 036    35  13.20  29.50  21.80 -99.000   3.055   0.000   3.055   0.747   0.000   0.747   0.000   0.000  185.10   52.30    0.00   52.30    0.00    0.00 -99.000 -99.000 -99.000 
 1980 037    36  27.40  31.20  20.40 -99.000   5.697   0.000   5.697   2.828   0.000   2.828   0.000   0.000  190.80   55.13    0.00   55.13    0.00    0.00 -99.000 -99.000 -99.000 
 1980 038    37  26.60  31.50  19.50 -99.000   5.467   0.000   5.467   1.920   0.000   1.920   0.000   0.000  196.27   57.05    0.00   57.05    0.00    0.00 -99.000 -99.000 -99.000 
 1980 039    38  28.40  31.40  17.90 -99.000   5.644   0.000   5.644   0.817   0.000   0.817   0.000   0.000  201.91   57.87    0.00   57.87    0.00    0.00 -99.000 -99.000 -99.000 
 1980 040    39  26.50  35.80  20.50 -99.000   5.942   0.000   5.942   0.740   0.000   0.740   0.000   0.000  207.85   58.61    0.00   58.61    0.00    0.00 -99.000 -99.000 -99.000 
 1980 041    40  10.20  29.90  19.70 -99.000   2.521   0.000   2.521   1.535   0.000   1.535   0.000   0.000  210.37   60.14    0.00   60.14    0.00    0.00 -99.000 -99.000 -99.000 
 1980 042    41  22.50  27.70  17.60 -99.000   4.876   0.000   4.876   4.876   0.000   4.876   0.000   0.000  215.25   65.02    0.00   65.02    0.00    0.00 -99.000 -99.000 -99.000 
 1980 043    42  28.00  32.90  18.20 -99.000   6.021   0.000   6.021   4.062   0.000   4.062   0.000   0.000  221.27   69.08    0.00   69.08    0.00    0.00 -99.000 -99.000 -99.000 
 1980 044    43  26.90  31.50  20.10 -99.000   5.685   0.000   5.685   1.632   0.000   1.632   0.000   0.000  226.96   70.71    0.00   70.71    0.00    0.00 -99.000 -99.000 -99.000 
 1980 045    44  26.30  31.70  19.90 -99.000   5.549   0.000   5.549   1.186   0.000   1.186   0.000   0.000  232.50   71.90    0.00   71.90    0.00    0.00 -99.000 -99.000 -99.000 
 1980 046    45  24.00  33.10  21.40 -99.000   5.284   0.000   5.284   1.920   0.000   1.920   0.000   0.000  237.79   73.82    0.00   73.82    0.00    0.00 -99.000 -99.000 -99.000 
 1980 047    46  14.50  31.70  21.80 -99.000   3.445   0.000   3.445   3.302   0.000   3.302   0.000   0.000  241.23   77.12    0.00   77.12    0.00    0.00 -99.000 -99.000 -99.000 
 1980 048    47  17.10  27.50  20.80 -99.000   3.977   0.000   3.977   3.977   0.000   3.977   0.000   0.000  245.21   81.10    0.00   81.10    0.00    0.00 -99.000 -99.000 -99.000 
 1980 049    48  22.60  27.00  16.60 -99.000   4.628   0.000   4.628   3.586   0.000   3.586   0.000   0.000  249.84   84.68    0.00   84.68    0.00    0.00 -99.000 -99.000 -99.000 
 1980 050    49  21.90  26.30  15.60 -99.000   4.272   0.000   4.272   2.270   0.000   2.270   0.000   0.000  254.11   86.95    0.00   86.95    0.00    0.00 -99.000 -99.000 -99.000 
 1980 051    50  17.60  28.20  16.50 -99.000   3.619   0.000   3.619   1.658   0.000   1.658   0.000   0.000  257.73   88.61    0.00   88.61    0.00    0.00 -99.000 -99.000 -99.000 
 1980 052    51  15.60  27.40  17.60 -99.000   3.316   0.000   3.316   1.070   0.000   1.070   0.000   0.000  261.04   89.68    0.00   89.68    0.00    0.00 -99.000 -99.000 -99.000 
 1980 053    52  21.20  30.60  19.70 -99.000   4.453   0.000   4.453   1.012   0.000   1.012   0.000   0.000  265.50   90.69    0.00   90.69    0.00    0.00 -99.000 -99.000 -99.000 
 1980 054    53  15.30  29.90  20.30 -99.000   3.381   0.000   3.381   0.808   0.000   0.808   0.000   0.000  268.88   91.50    0.00   91.50    0.00    0.00 -99.000 -99.000 -99.000 
 1980 055    54  15.00  29.00  20.10 -99.000   3.325   0.000   3.325   1.120   0.000   1.120   0.000   0.000  272.20   92.62    0.00   92.62    0.00    0.00 -99.000 -99.000 -99.000 
 1980 056    55  20.20  29.60  20.70 -99.000   4.263   0.000   4.263   0.858   0.000   0.858   0.000   0.000  276.47   93.48    0.00   93.48    0.00    0.00 -99.000 -99.000 -99.000 
 1980 057    56  22.50  30.60  20.70 -99.000   4.750   0.000   4.750   0.696   0.000   0.696   0.000   0.000  281.22   94.18    0.00   94.18    0.00    0.00 -99.000 -99.000 -99.000 
 1980 058    57  22.30  32.70  20.00 -99.000   4.720   0.000   4.720   0.746   0.000   0.746   0.000   0.000  285.94   94.92    0.00   94.92    0.00    0.00 -99.000 -99.000 -99.000 
 1980 059    58  23.70  34.40  21.70 -99.000   5.054   0.000   5.054   0.706   0.000   0.706   0.000   0.000  290.99   95.63    0.00   95.63    0.00    0.00 -99.000 -99.000 -99.000 
 1980 060    59  19.70  33.90  23.50 -99.000   4.416   0.000   4.416   0.573   0.000   0.573   0.000   0.000  295.41   96.20    0.00   96.20    0.00    0.00 -99.000 -99.000 -99.000 
 1980 061    60  19.10  31.60  20.90 -99.000   4.140   0.000   4.140   0.952   0.000   0.952   0.000   0.000  299.55   97.15    0.00   97.15    0.00    0.00 -99.000 -99.000 -99.000 
 1980 062    61  13.90  30.00  23.00 -99.000   3.165   0.000   3.165   0.830   0.000   0.830   0.000   0.000  302.71   97.98    0.00   97.98    0.00    0.00 -99.000 -99.000 -99.000 
 1980 063    62   9.40  24.50  21.70 -99.000   2.377   0.000   2.377   2.377   0.000   2.377   0.000   0.000  305.09  100.36    0.00  100.36    0.00    0.00 -99.000 -99.000 -99.000 
 1980 064    63  16.20  29.60  21.60 -99.000   3.858   0.000   3.858   3.764   0.000   3.764   0.000   0.000  308.95  104.12    0.00  104.12    0.00    0.00 -99.000 -99.000 -99.000 
 1980 065    64  23.10  34.80  22.20 -99.000   5.229   0.000   5.229   5.229   0.000   5.229   0.000   0.000  314.18  109.35    0.00  109.35    0.00    0.00 -99.000 -99.000 -99.000 
 1980 066    65  15.40  31.20  21.40 -99.000   3.674   0.000   3.674   3.674   0.000   3.674   0.000   0.000  317.85  113.03    0.00  113.03    0.00    0.00 -99.000 -99.000 -99.000 
 1980 067    66  15.30  29.80  21.10 -99.000   3.625   0.000   3.625   3.625   0.000   3.625   0.000   0.000  321.47  116.65    0.00  116.65    0.00    0.00 -99.000 -99.000 -99.000 
 1980 068    67  18.60  31.10  21.20 -99.000   4.287   0.000   4.287   3.842   0.000   3.842   0.000   0.000  325.76  120.49    0.00  120.49    0.00    0.00 -99.000 -99.000 -99.000 
 1980 069    68  22.20  32.90  21.10 -99.000   4.859   0.000   4.859   2.896   0.000   2.896   0.000   0.000  330.62  123.39    0.00  123.39    0.00    0.00 -99.000 -99.000 -99.000 
 1980 070    69  17.40  33.80  21.80 -99.000   3.937   0.000   3.937   1.731   0.000   1.731   0.000   0.000  334.56  125.12    0.00  125.12    0.00    0.00 -99.000 -99.000 -99.000 
 1980 071    70   9.00  28.10  22.20 -99.000   2.162   0.000   2.162   1.404   0.000   1.404   0.000   0.000  336.72  126.53    0.00  126.53    0.00    0.00 -99.000 -99.000 -99.000 
 1980 072    71  10.30  27.20  22.00 -99.000   2.368   0.000   2.368   1.872   0.000   1.872   0.000   0.000  339.09  128.40    0.00  128.40    0.00    0.00 -99.000 -99.000 -99.000 
 1980 073    72  19.90  28.10  20.20 -99.000   4.382   0.000   4.382   4.382   0.000   4.382   0.000   0.000  343.47  132.78    0.00  132.78    0.00    0.00 -99.000 -99.000 -99.000 
 1980 074    73  22.00  28.90  18.50 -99.000   4.566   0.000   4.566   4.027   0.000   4.027   0.000   0.000  348.04  136.81    0.00  136.81    0.00    0.00 -99.000 -99.000 -99.000 
 1980 075    74  21.90  29.90  19.40 -99.000   4.504   0.000   4.504   2.783   0.000   2.783   0.000   0.000  352.54  139.59    0.00  139.59    0.00    0.00 -99.000 -99.000 -99.000 
 1980 076    75  20.70  30.10  19.80 -99.000   4.227   0.000   4.227   1.423   0.000   1.423   0.000   0.000  356.77  141.01    0.00  141.01    0.00    0.00 -99.000 -99.000 -99.000 
 1980 077    76  20.10  31.00  20.80 -99.000   4.141   0.000   4.141   1.100   0.000   1.100   0.000   0.000  360.91  142.11    0.00  142.11    0.00    0.00 -99.000 -99.000 -99.000 
 1980 078    77  20.00  33.60  22.60 -99.000   4.355   0.000   4.355   1.031   0.000   1.031   0.000   0.000  365.26  143.14    0.00  143.14    0.00    0.00 -99.000 -99.000 -99.000 
 1980 079    78  20.50  33.00  23.30 -99.000   4.500   0.000   4.500   0.821   0.000   0.821   0.000   0.000  369.76  143.97    0.00  143.97    0.00    0.00 -99.000 -99.000 -99.000 
 1980 080    79  20.10  35.20  22.50 -99.000   4.331   0.000   4.331   0.743   0.000   0.743   0.000   0.000  374.09  144.71    0.00  144.71    0.00    0.00 -99.000 -99.000 -99.000 
 1980 081    80  20.40  35.40  23.10 -99.000   4.310   0.000   4.310   0.684   0.000   0.684   0.000   0.000  378.40  145.39    0.00  145.39    0.00    0.00 -99.000 -99.000 -99.000 
 1980 082    81  20.20  35.50  24.30 -99.000   4.271   0.000   4.271   0.607   0.000   0.607   0.000   0.000  382.67  146.00    0.00  146.00    0.00    0.00 -99.000 -99.000 -99.000 
 1980 083    82  19.30  36.40  24.50 -99.000   4.197   0.000   4.197   0.394   0.000   0.394   0.000   0.000  386.87  146.39    0.00  146.39    0.00    0.00 -99.000 -99.000 -99.000 
 1980 084    83  17.30  35.90  24.70 -99.000   4.023   0.000   4.023   2.935   0.000   2.935   0.000   0.000  390.89  149.33    0.00  149.33    0.00    0.00 -99.000 -99.000 -99.000 
 1980 085    84  10.40  30.30  22.00 -99.000   2.530   0.000   2.530   2.530   0.000   2.530   0.000   0.000  393.42  151.86    0.00  151.86    0.00    0.00 -99.000 -99.000 -99.000 
 1980 086    85   8.70  26.80  21.10 -99.000   2.141   0.000   2.141   2.141   0.000   2.141   0.000   0.000  395.57  154.00    0.00  154.00    0.00    0.00 -99.000 -99.000 -99.000 
 1980 087    86   8.30  28.60  22.40 -99.000   2.124   0.000   2.124   2.124   0.000   2.124   0.000   0.000  397.69  156.12    0.00  156.12    0.00    0.00 -99.000 -99.000 -99.000 
 1980 088    87   9.20  27.30  22.00 -99.000   2.230   0.000   2.230   2.230   0.000   2.230   0.000   0.000  399.92  158.35    0.00  158.35    0.00    0.00 -99.000 -99.000 -99.000 
 1980 089    88  13.90  27.70  20.70 -99.000   3.103   0.000   3.103   3.103   0.000   3.103   0.000   0.000  403.02  161.46    0.00  161.46    0.00    0.00 -99.000 -99.000 -99.000 
 1980 090    89  16.50  25.10  16.40 -99.000   3.116   0.000   3.116   2.736   0.000   2.736   0.000   0.000  406.14  164.19    0.00  164.19    0.00    0.00 -99.000 -99.000 -99.000 
 1980 091    90  18.70  25.80  15.80 -99.000   3.355   0.000   3.355   2.977   0.000   2.977   0.000   0.000  409.49  167.17    0.00  167.17    0.00    0.00 -99.000 -99.000 -99.000 
 1980 092    91  16.60  27.70  17.00 -99.000   3.090   0.000   3.090   1.436   0.000   1.436   0.000   0.000  412.58  168.61    0.00  168.61    0.00    0.00 -99.000 -99.000 -99.000 
 1980 093    92  14.10  28.20  17.50 -99.000   2.702   0.000   2.702   1.106   0.000   1.106   0.000   0.000  415.29  169.71    0.00  169.71    0.00    0.00 -99.000 -99.000 -99.000 
 1980 094    93  18.30  29.30  17.80 -99.000   3.397   0.000   3.397   0.931   0.000   0.931   0.000   0.000  418.68  170.64    0.00  170.64    0.00    0.00 -99.000 -99.000 -99.000 
 1980 095    94  18.00  31.10  19.60 -99.000   3.430   0.000   3.430   0.505   0.000   0.505   0.000   0.000  422.11  171.15    0.00  171.15    0.00    0.00 -99.000 -99.000 -99.000 
 1980 096    95  17.40  29.80  19.50 -99.000   3.305   0.000   3.305   0.464   0.000   0.464   0.000   0.000  425.42  171.61    0.00  171.61    0.00    0.00 -99.000 -99.000 -99.000 
 1980 097    96  16.00  29.50  18.90 -99.000   3.006   0.000   3.006   0.431   0.000   0.431   0.000   0.000  428.42  172.04    0.00  172.04    0.00    0.00 -99.000 -99.000 -99.000 
 1980 098    97  14.30  26.80  18.50 -99.000   2.648   0.000   2.648   0.404   0.000   0.404   0.000   0.000  431.07  172.45    0.00  172.45    0.00    0.00 -99.000 -99.000 -99.000 
 1980 099    98  10.30  26.90  19.70 -99.000   2.088   0.000   2.088   0.381   0.000   0.381   0.000   0.000  433.16  172.83    0.00  172.83    0.00    0.00 -99.000 -99.000 -99.000 
 1980 100    99  17.00  30.80  20.20 -99.000   3.472   0.000   3.472   3.241   0.000   3.241   0.000   0.000  436.63  176.07    0.00  176.07    0.00    0.00 -99.000 -99.000 -99.000 
 1980 101   100   9.00  30.80  22.10 -99.000   2.171   0.000   2.171   2.171   0.000   2.171   0.000   0.000  438.80  178.24    0.00  178.24    0.00    0.00 -99.000 -99.000 -99.000 
 1980 102   101   9.40  31.40  19.30 -99.000   2.245   0.000   2.245   2.245   0.000   2.245   0.000   0.000  441.05  180.49    0.00  180.49    0.00    0.00 -99.000 -99.000 -99.000 
 1980 103   102   6.90  24.90  17.60 -99.000   1.636   0.000   1.636   1.636   0.000   1.636   0.000   0.000  442.68  182.12    0.00  182.12    0.00    0.00 -99.000 -99.000 -99.000 
 1980 104   103  11.30  20.20  13.90 -99.000   2.061   0.000   2.061   2.061   0.000   2.061   0.000   0.000  444.74  184.18    0.00  184.18    0.00    0.00 -99.000 -99.000 -99.000 
 1980 105   104  10.80  17.40  11.30 -99.000   1.770   0.000   1.770   1.770   0.000   1.770   0.000   0.000  446.51  185.95    0.00  185.95    0.00    0.00 -99.000 -99.000 -99.000 
 1980 106   105  18.50  19.90   8.60 -99.000   2.552   0.000   2.552   1.944   0.000   1.944   0.000   0.000  449.07  187.90    0.00  187.90    0.00    0.00 -99.000 -99.000 -99.000 
 1980 107   106  16.30  22.20   8.50 -99.000   2.340   0.000   2.340   2.340   0.000   2.340   0.000   0.000  451.41  190.24    0.00  190.24    0.00    0.00 -99.000 -99.000 -99.000 
 1980 108   107  10.90  24.10  12.50 -99.000   1.909   0.000   1.909   1.909   0.000   1.909   0.000   0.000  453.32  192.15    0.00  192.15    0.00    0.00 -99.000 -99.000 -99.000 
 1980 109   108   7.70  26.20  18.50 -99.000   1.685   0.000   1.685   1.685   0.000   1.685   0.000   0.000  455.00  193.83    0.00  193.83    0.00    0.00 -99.000 -99.000 -99.000 
 1980 110   109   6.60  25.40  21.10 -99.000   1.615   0.000   1.615   1.615   0.000   1.615   0.000   0.000  456.62  195.45    0.00  195.45    0.00    0.00 -99.000 -99.000 -99.000 
 1980 111   110   9.20  29.30  21.30 -99.000   2.152   0.000   2.152   2.152   0.000   2.152   0.000   0.000  458.77  197.60    0.00  197.60    0.00    0.00 -99.000 -99.000 -99.000 
 1980 112   111  12.60  32.10  20.90 -99.000   2.801   0.000   2.801   2.801   0.000   2.801   0.000   0.000  461.57  200.40    0.00  200.40    0.00    0.00 -99.000 -99.000 -99.000 
 1980 113   112  17.60  31.20  20.50 -99.000   3.388   0.000   3.388   3.388   0.000   3.388   0.000   0.000  464.96  203.79    0.00  203.79    0.00    0.00 -99.000 -99.000 -99.000 
 1980 114   113  15.20  32.40  20.70 -99.000   2.936   0.000   2.936   1.767   0.000   1.767   0.000   0.000  467.89  205.55    0.00  205.55    0.00    0.00 -99.000 -99.000 -99.000 
 1980 115   114  16.50  31.90  21.30 -99.000   3.077   0.000   3.077   3.077   0.000   3.077   0.000   0.000  470.97  208.63    0.00  208.63    0.00    0.00 -99.000 -99.000 -99.000 
 1980 116   115  13.20  30.40  21.40 -99.000   2.667   0.000   2.667   2.387   0.000   2.387   0.000   0.000  473.64  211.02    0.00  211.02    0.00    0.00 -99.000 -99.000 -99.000 
 1980 117   116  13.20  28.30  18.60 -99.000   2.489   0.000   2.489   2.489   0.000   2.489   0.000   0.000  476.13  213.51    0.00  213.51    0.00    0.00 -99.000 -99.000 -99.000 
 1980 118   117  14.50  30.50  19.00 -99.000   2.579   0.000   2.579   1.642   0.000   1.642   0.000   0.000  478.70  215.15    0.00  215.15    0.00    0.00 -99.000 -99.000 -99.000 
 1980 119   118  14.20  30.80  19.00 -99.000   2.503   0.000   2.503   1.190   0.000   1.190   0.000   0.000  481.21  216.34    0.00  216.34    0.00    0.00 -99.000 -99.000 -99.000 
 1980 120   119  13.90  30.70  18.80 -99.000   2.393   0.000   2.393   0.983   0.000   0.983   0.000   0.000  483.60  217.32    0.00  217.32    0.00    0.00 -99.000 -99.000 -99.000 
 1980 121   120   6.80  24.70  16.40 -99.000   1.361   0.000   1.361   1.361   0.000   1.361   0.000   0.000  484.96  218.68    0.00  218.68    0.00    0.00 -99.000 -99.000 -99.000 
 1980 122   121   7.30  18.40  12.50 -99.000   1.235   0.000   1.235   0.800   0.000   0.800   0.000   0.000  486.20  219.48    0.00  219.48    0.00    0.00 -99.000 -99.000 -99.000 
 1980 123   122  12.00  17.90  10.20 -99.000   1.588   0.000   1.588   0.817   0.000   0.817   0.000   0.000  487.79  220.30    0.00  220.30    0.00    0.00 -99.000 -99.000 -99.000 
 1980 124   123  13.60  17.10   9.90 -99.000   1.647   0.000   1.647   0.840   0.000   0.840   0.000   0.000  489.43  221.14    0.00  221.14    0.00    0.00 -99.000 -99.000 -99.000 
 1980 125   124  12.30  19.60   9.00 -99.000   1.580   0.000   1.580   0.982   0.000   0.982   0.000   0.000  491.01  222.12    0.00  222.12    0.00    0.00 -99.000 -99.000 -99.000 
 1980 126   125  13.80  21.20   9.40 -99.000   1.745   0.000   1.745   0.927   0.000   0.927   0.000   0.000  492.76  223.05    0.00  223.05    0.00    0.00 -99.000 -99.000 -99.000 
 1980 127   126  13.00  23.00  11.80 -99.000   1.744   0.000   1.744   0.603   0.000   0.603   0.000   0.000  494.50  223.65    0.00  223.65    0.00    0.00 -99.000 -99.000 -99.000 
 1980 128   127   6.60  20.10  12.20 -99.000   1.133   0.000   1.133   0.436   0.000   0.436   0.000   0.000  495.64  224.09    0.00  224.09    0.00    0.00 -99.000 -99.000 -99.000 
 1980 129   128   6.30  21.70  13.60 -99.000   1.173   0.000   1.173   0.631   0.000   0.631   0.000   0.000  496.81  224.72    0.00  224.72    0.00    0.00 -99.000 -99.000 -99.000 
 1980 130   129   6.10  22.30  17.60 -99.000   1.202   0.000   1.202   1.202   0.000   1.202   0.000   0.000  498.01  225.92    0.00  225.92    0.00    0.00 -99.000 -99.000 -99.000 
 1980 131   130  10.10  25.30  17.40 -99.000   1.788   0.000   1.788   1.788   0.000   1.788   0.000   0.000  499.80  227.71    0.00  227.71    0.00    0.00 -99.000 -99.000 -99.000 
 1980 132   131  13.40  28.50  16.40 -99.000   2.259   0.000   2.259   1.158   0.000   1.158   0.000   0.000  502.06  228.87    0.00  228.87    0.00    0.00 -99.000 -99.000 -99.000 
 1980 133   132  13.80  29.20  17.30 -99.000   2.322   0.000   2.322   0.964   0.000   0.964   0.000   0.000  504.38  229.83    0.00  229.83    0.00    0.00 -99.000 -99.000 -99.000 
 1980 134   133  14.80  29.80  18.70 -99.000   2.480   0.000   2.480   0.844   0.000   0.844   0.000   0.000  506.86  230.68    0.00  230.68    0.00    0.00 -99.000 -99.000 -99.000 
 1980 135   134  13.50  30.10  18.60 -99.000   2.287   0.000   2.287   0.760   0.000   0.760   0.000   0.000  509.15  231.44    0.00  231.44    0.00    0.00 -99.000 -99.000 -99.000 
 1980 136   135   8.80  28.40  20.10 -99.000   1.664   0.000   1.664   1.497   0.000   1.497   0.000   0.000  510.81  232.93    0.00  232.93    0.00    0.00 -99.000 -99.000 -99.000 
 1980 137   136   5.30  22.40  17.50 -99.000   1.095   0.000   1.095   1.095   0.000   1.095   0.000   0.000  511.90  234.03    0.00  234.03    0.00    0.00 -99.000 -99.000 -99.000 
 1980 138   137   6.80  22.10  15.20 -99.000   1.239   0.000   1.239   0.834   0.000   0.834   0.000   0.000  513.14  234.86    0.00  234.86    0.00    0.00 -99.000 -99.000 -99.000 
 1980 139   138   6.50  24.40  18.00 -99.000   1.275   0.000   1.275   0.752   0.000   0.752   0.000   0.000  514.42  235.61    0.00  235.61    0.00    0.00 -99.000 -99.000 -99.000 
 1980 140   139   8.30  25.30  18.50 -99.000   1.515   0.000   1.515   0.691   0.000   0.691   0.000   0.000  515.93  236.31    0.00  236.31    0.00    0.00 -99.000 -99.000 -99.000 
 1980 141   140   6.80  26.40  17.20 -99.000   1.306   0.000   1.306   1.280   0.000   1.280   0.000   0.000  517.24  237.59    0.00  237.59    0.00    0.00 -99.000 -99.000 -99.000 
 1980 142   141   5.40  22.90  19.90 -99.000   1.133   0.000   1.133   1.133   0.000   1.133   0.000   0.000  518.37  238.72    0.00  238.72    0.00    0.00 -99.000 -99.000 -99.000 
 1980 143   142   8.70  20.50  15.20 -99.000   1.381   0.000   1.381   1.381   0.000   1.381   0.000   0.000  519.75  240.10    0.00  240.10    0.00    0.00 -99.000 -99.000 -99.000 
 1980 144   143   9.70  23.90  12.80 -99.000   1.557   0.000   1.557   1.557   0.000   1.557   0.000   0.000  521.31  241.66    0.00  241.66    0.00    0.00 -99.000 -99.000 -99.000 
 1980 145   144  11.90  24.00  13.40 -99.000   1.771   0.000   1.771   1.771   0.000   1.771   0.000   0.000  523.08  243.43    0.00  243.43    0.00    0.00 -99.000 -99.000 -99.000 
 1980 146   145   8.20  21.90  13.80 -99.000   1.307   0.000   1.307   1.307   0.000   1.307   0.000   0.000  524.39  244.73    0.00  244.73    0.00    0.00 -99.000 -99.000 -99.000 
 1980 147   146  11.90  25.20  14.70 -99.000   1.739   0.000   1.739   1.077   0.000   1.077   0.000   0.000  526.13  245.81    0.00  245.81    0.00    0.00 -99.000 -99.000 -99.000 
 1980 148   147  13.40  27.10  13.70 -99.000   1.762   0.000   1.762   1.762   0.000   1.762   0.000   0.000  527.89  247.57    0.00  247.57    0.00    0.00 -99.000 -99.000 -99.000 
 1980 149   148   8.60  26.90  18.20 -99.000   1.452   0.000   1.452   1.452   0.000   1.452   0.000   0.000  529.34  249.03    0.00  249.03    0.00    0.00 -99.000 -99.000 -99.000 
 1980 150   149   8.60  23.10  15.00 -99.000   1.337   0.000   1.337   1.337   0.000   1.337   0.000   0.000  530.68  250.36    0.00  250.36    0.00    0.00 -99.000 -99.000 -99.000 
 1980 151   150   9.10  26.10  18.60 -99.000   1.596   0.000   1.596   1.596   0.000   1.596   0.000   0.000  532.27  251.96    0.00  251.96    0.00    0.00 -99.000 -99.000 -99.000 
 1980 152   151   5.70  24.90  19.60 -99.000   1.220   0.000   1.220   1.220   0.000   1.220   0.000   0.000  533.49  253.18    0.00  253.18    0.00    0.00 -99.000 -99.000 -99.000 
 1980 153   152   7.30  21.80  13.30 -99.000   1.223   0.000   1.223   1.223   0.000   1.223   0.000   0.000  534.72  254.40    0.00  254.40    0.00    0.00 -99.000 -99.000 -99.000 
 1980 154   153  11.00  14.90   7.20 -99.000   1.199   0.000   1.199   1.199   0.000   1.199   0.000   0.000  535.92  255.60    0.00  255.60    0.00    0.00 -99.000 -99.000 -99.000 
 1980 155   154  13.90  17.20   7.80 -99.000   1.440   0.000   1.440   1.440   0.000   1.440   0.000   0.000  537.36  257.04    0.00  257.04    0.00    0.00 -99.000 -99.000 -99.000 
 1980 156   155  14.50  21.30   9.90 -99.000   1.681   0.000   1.681   1.681   0.000   1.681   0.000   0.000  539.04  258.72    0.00  258.72    0.00    0.00 -99.000 -99.000 -99.000 
 1980 157   156  13.80  23.30  10.90 -99.000   1.606   0.000   1.606   1.186   0.000   1.186   0.000   0.000  540.64  259.91    0.00  259.91    0.00    0.00 -99.000 -99.000 -99.000 
 1980 158   157  12.30  24.30   9.10 -99.000   1.414   0.000   1.414   1.414   0.000   1.414   0.000   0.000  542.06  261.32    0.00  261.32    0.00    0.00 -99.000 -99.000 -99.000 
 1980 159   158   9.30  26.20  13.70 -99.000   1.201   0.000   1.201   1.201   0.000   1.201   0.000   0.000  543.26  262.52    0.00  262.52    0.00    0.00 -99.000 -99.000 -99.000 
 1980 160   159  10.10  26.20  14.30 -99.000   1.395   0.000   1.395   1.395   0.000   1.395   0.000   0.000  544.65  263.92    0.00  263.92    0.00    0.00 -99.000 -99.000 -99.000 
 1980 161   160   9.30  28.20  17.00 -99.000   1.352   0.000   1.352   1.352   0.000   1.352   0.000   0.000  546.01  265.27    0.00  265.27    0.00    0.00 -99.000 -99.000 -99.000 
 1980 162   161   6.50  26.20  17.10 -99.000   1.210   0.000   1.210   1.210   0.000   1.210   0.000   0.000  547.22  266.48    0.00  266.48    0.00    0.00 -99.000 -99.000 -99.000 
 1980 163   162   5.10  24.00  17.50 -99.000   1.089   0.000   1.089   1.089   0.000   1.089   0.000   0.000  548.30  267.57    0.00  267.57    0.00    0.00 -99.000 -99.000 -99.000 
 1980 164   163   4.60  21.40  17.10 -99.000   0.988   0.000   0.988   0.988   0.000   0.988   0.000   0.000  549.29  268.56    0.00  268.56    0.00    0.00 -99.000 -99.000 -99.000 
 1980 165   164   5.40  18.70  11.90 -99.000   0.971   0.000   0.971   0.971   0.000   0.971   0.000   0.000  550.26  269.53    0.00  269.53    0.00    0.00 -99.000 -99.000 -99.000 
 1980 166   165  10.20  16.90   8.80 -99.000   1.213   0.000   1.213   1.213   0.000   1.213   0.000   0.000  551.48  270.74    0.00  270.74    0.00    0.00 -99.000 -99.000 -99.000 
 1980 167   166  12.30  18.20   6.10 -99.000   1.335   0.000   1.335   1.335   0.000   1.335   0.000   0.000  552.81  272.08    0.00  272.08    0.00    0.00 -99.000 -99.000 -99.000 
 1980 168   167  11.60  22.50   7.20 -99.000   1.333   0.000   1.333   1.333   0.000   1.333   0.000   0.000  554.14  273.41    0.00  273.41    0.00    0.00 -99.000 -99.000 -99.000 
 1980 169   168   7.30  25.90  12.60 -99.000   1.144   0.000   1.144   1.144   0.000   1.144   0.000   0.000  555.29  274.55    0.00  274.55    0.00    0.00 -99.000 -99.000 -99.000 
 1980 170   169   7.70  24.40  14.00 -99.000   1.188   0.000   1.188   1.188   0.000   1.188   0.000   0.000  556.48  275.74    0.00  275.74    0.00    0.00 -99.000 -99.000 -99.000 
 1980 171   170   5.40  20.80  11.60 -99.000   0.933   0.000   0.933   0.933   0.000   0.933   0.000   0.000  557.41  276.67    0.00  276.67    0.00    0.00 -99.000 -99.000 -99.000 
 1980 172   171   4.70  16.60  12.60 -99.000   0.883   0.000   0.883   0.883   0.000   0.883   0.000   0.000  558.29  277.56    0.00  277.56    0.00    0.00 -99.000 -99.000 -99.000 
 1980 173   172  10.20  18.30  11.20 -99.000   1.251   0.000   1.251   1.251   0.000   1.251   0.000   0.000  559.54  278.81    0.00  278.81    0.00    0.00 -99.000 -99.000 -99.000 
 1980 174   173   8.80  20.30  10.80 -99.000   1.133   0.000   1.133   1.133   0.000   1.133   0.000   0.000  560.68  279.94    0.00  279.94    0.00    0.00 -99.000 -99.000 -99.000 
 1980 175   174  11.00  21.40   9.60 -99.000   1.275   0.000   1.275   1.275   0.000   1.275   0.000   0.000  561.95  281.22    0.00  281.22    0.00    0.00 -99.000 -99.000 -99.000 
 1980 176   175   5.00  18.00  10.80 -99.000   0.858   0.000   0.858   0.858   0.000   0.858   0.000   0.000  562.81  282.07    0.00  282.07    0.00    0.00 -99.000 -99.000 -99.000 
 1980 177   176   7.00  15.60   9.20 -99.000   0.946   0.000   0.946   0.946   0.000   0.946   0.000   0.000  563.75  283.02    0.00  283.02    0.00    0.00 -99.000 -99.000 -99.000 
 1980 178   177  12.10  16.80   8.10 -99.000   1.254   0.000   1.254   1.254   0.000   1.254   0.000   0.000  565.01  284.27    0.00  284.27    0.00    0.00 -99.000 -99.000 -99.000 
 1980 179   178  14.40  19.70   8.60 -99.000   1.637   0.000   1.637   1.637   0.000   1.637   0.000   0.000  566.65  285.91    0.00  285.91    0.00    0.00 -99.000 -99.000 -99.000 
 1980 180   179  13.50  21.80   6.80 -99.000   1.348   0.000   1.348   1.348   0.000   1.348   0.000   0.000  567.99  287.26    0.00  287.26    0.00    0.00 -99.000 -99.000 -99.000 
 1980 181   180   7.40  24.00  10.90 -99.000   1.083   0.000   1.083   1.083   0.000   1.083   0.000   0.000  569.08  288.34    0.00  288.34    0.00    0.00 -99.000 -99.000 -99.000 
 1980 182   181   5.20  25.20  13.30 -99.000   1.043   0.000   1.043   1.043   0.000   1.043   0.000   0.000  570.12  289.38    0.00  289.38    0.00    0.00 -99.000 -99.000 -99.000 
 1980 183   182   8.00  14.60   7.30 -99.000   1.007   0.000   1.007   1.007   0.000   1.007   0.000   0.000  571.13  290.39    0.00  290.39    0.00    0.00 -99.000 -99.000 -99.000 
 1980 184   183  11.20  14.90  10.20 -99.000   1.269   0.000   1.269   1.269   0.000   1.269   0.000   0.000  572.40  291.66    0.00  291.66    0.00    0.00 -99.000 -99.000 -99.000 
 1980 185   184   4.90  14.40  11.10 -99.000   0.843   0.000   0.843   0.843   0.000   0.843   0.000   0.000  573.24  292.50    0.00  292.50    0.00    0.00 -99.000 -99.000 -99.000 
 1980 186   185   9.10  19.10   9.30 -99.000   1.190   0.000   1.190   1.190   0.000   1.190   0.000   0.000  574.43  293.69    0.00  293.69    0.00    0.00 -99.000 -99.000 -99.000 
 1980 187   186  10.30  20.90  10.90 -99.000   1.289   0.000   1.289   1.289   0.000   1.289   0.000   0.000  575.72  294.98    0.00  294.98    0.00    0.00 -99.000 -99.000 -99.000 
 1980 188   187  10.90  24.60  12.90 -99.000   1.472   0.000   1.472   1.472   0.000   1.472   0.000   0.000  577.19  296.45    0.00  296.45    0.00    0.00 -99.000 -99.000 -99.000 
 1980 189   188   8.00  22.00  14.00 -99.000   1.247   0.000   1.247   1.247   0.000   1.247   0.000   0.000  578.44  297.70    0.00  297.70    0.00    0.00 -99.000 -99.000 -99.000 
 1980 190   189   6.20  21.10  13.70 -99.000   1.122   0.000   1.122   1.122   0.000   1.122   0.000   0.000  579.56  298.82    0.00  298.82    0.00    0.00 -99.000 -99.000 -99.000 
 1980 191   190  12.90  18.00   9.60 -99.000   1.494   0.000   1.494   1.494   0.000   1.494   0.000   0.000  581.05  300.32    0.00  300.32    0.00    0.00 -99.000 -99.000 -99.000 
 1980 192   191  10.20  16.10  10.50 -99.000   1.289   0.000   1.289   1.289   0.000   1.289   0.000   0.000  582.34  301.61    0.00  301.61    0.00    0.00 -99.000 -99.000 -99.000 
 1980 193   192  11.80  21.20   9.70 -99.000   1.523   0.000   1.523   1.523   0.000   1.523   0.000   0.000  583.86  303.13    0.00  303.13    0.00    0.00 -99.000 -99.000 -99.000 
 1980 194   193   8.40  19.90  13.50 -99.000   1.251   0.000   1.251   1.251   0.000   1.251   0.000   0.000  585.12  304.38    0.00  304.38    0.00    0.00 -99.000 -99.000 -99.000 
 1980 195   194   6.20  21.40  14.20 -99.000   1.097   0.000   1.097   0.835   0.000   0.835   0.000   0.000  586.21  305.21    0.00  305.21    0.00    0.00 -99.000 -99.000 -99.000 
 1980 196   195  10.90  19.90   6.90 -99.000   1.213   0.000   1.213   1.213   0.000   1.213   0.000   0.000  587.42  306.43    0.00  306.43    0.00    0.00 -99.000 -99.000 -99.000 
 1980 197   196  14.50  15.80   4.40 -99.000   1.402   0.000   1.402   1.402   0.000   1.402   0.000   0.000  588.83  307.83    0.00  307.83    0.00    0.00 -99.000 -99.000 -99.000 
 1980 198   197  12.80  23.80  10.50 -99.000   1.542   0.000   1.542   1.542   0.000   1.542   0.000   0.000  590.37  309.37    0.00  309.37    0.00    0.00 -99.000 -99.000 -99.000 
 1980 199   198  11.20  24.00   9.10 -99.000   1.417   0.000   1.417   1.191   0.000   1.191   0.000   0.000  591.78  310.56    0.00  310.56    0.00    0.00 -99.000 -99.000 -99.000 
 1980 200   199   8.70  22.60  11.40 -99.000   1.209   0.000   1.209   0.983   0.000   0.983   0.000   0.000  592.99  311.54    0.00  311.54    0.00    0.00 -99.000 -99.000 -99.000 
 1980 201   200  10.40  27.10  14.20 -99.000   1.508   0.000   1.508   0.857   0.000   0.857   0.000   0.000  594.50  312.40    0.00  312.40    0.00    0.00 -99.000 -99.000 -99.000 
 1980 202   201   5.50  24.00  13.60 -99.000   1.041   0.000   1.041   1.041   0.000   1.041   0.000   0.000  595.54  313.44    0.00  313.44    0.00    0.00 -99.000 -99.000 -99.000 
 1980 203   202  13.70  18.40  10.50 -99.000   1.513   0.000   1.513   1.180   0.000   1.180   0.000   0.000  597.06  314.62    0.00  314.62    0.00    0.00 -99.000 -99.000 -99.000 
 1980 204   203  14.30  20.50   7.60 -99.000   1.532   0.000   1.532   1.532   0.000   1.532   0.000   0.000  598.59  316.15    0.00  316.15    0.00    0.00 -99.000 -99.000 -99.000 
 1980 205   204  14.00  20.50   9.00 -99.000   1.550   0.000   1.550   1.550   0.000   1.550   0.000   0.000  600.14  317.70    0.00  317.70    0.00    0.00 -99.000 -99.000 -99.000 
 1980 206   205  13.00  22.80   9.50 -99.000   1.631   0.000   1.631   1.426   0.000   1.426   0.000   0.000  601.77  319.13    0.00  319.13    0.00    0.00 -99.000 -99.000 -99.000 
 1980 207   206  11.90  24.90  11.60 -99.000   1.650   0.000   1.650   1.650   0.000   1.650   0.000   0.000  603.42  320.78    0.00  320.78    0.00    0.00 -99.000 -99.000 -99.000 
 1980 208   207   6.80  25.00  14.60 -99.000   1.329   0.000   1.329   1.329   0.000   1.329   0.000   0.000  604.75  322.11    0.00  322.11    0.00    0.00 -99.000 -99.000 -99.000 
 1980 209   208  14.10  18.70   9.90 -99.000   1.718   0.000   1.718   1.718   0.000   1.718   0.000   0.000  606.47  323.83    0.00  323.83    0.00    0.00 -99.000 -99.000 -99.000 
 1980 210   209   7.50  18.40   9.20 -99.000   1.230   0.000   1.230   1.230   0.000   1.230   0.000   0.000  607.70  325.06    0.00  325.06    0.00    0.00 -99.000 -99.000 -99.000 
 1980 211   210   6.90  16.50  10.00 -99.000   1.117   0.000   1.117   1.117   0.000   1.117   0.000   0.000  608.81  326.18    0.00  326.18    0.00    0.00 -99.000 -99.000 -99.000 
 1980 212   211   6.90  16.20   8.40 -99.000   1.112   0.000   1.112   1.112   0.000   1.112   0.000   0.000  609.93  327.29    0.00  327.29    0.00    0.00 -99.000 -99.000 -99.000 
 1980 213   212  15.90  18.90   6.50 -99.000   1.795   0.000   1.795   1.795   0.000   1.795   0.000   0.000  611.72  329.08    0.00  329.08    0.00    0.00 -99.000 -99.000 -99.000 
 1980 214   213  16.20  20.70   7.40 -99.000   1.810   0.000   1.810   1.417   0.000   1.417   0.000   0.000  613.53  330.50    0.00  330.50    0.00    0.00 -99.000 -99.000 -99.000 
 1980 215   214   6.70  22.60   9.60 -99.000   1.176   0.000   1.176   1.176   0.000   1.176   0.000   0.000  614.71  331.68    0.00  331.68    0.00    0.00 -99.000 -99.000 -99.000 
 1980 216   215  14.00  24.10  12.10 -99.000   1.967   0.000   1.967   1.967   0.000   1.967   0.000   0.000  616.67  333.64    0.00  333.64    0.00    0.00 -99.000 -99.000 -99.000 
 1980 217   216  11.00  24.80  14.00 -99.000   1.744   0.000   1.744   1.744   0.000   1.744   0.000   0.000  618.42  335.39    0.00  335.39    0.00    0.00 -99.000 -99.000 -99.000 
 1980 218   217   5.90  20.60  16.40 -99.000   1.269   0.000   1.269   1.269   0.000   1.269   0.000   0.000  619.69  336.66    0.00  336.66    0.00    0.00 -99.000 -99.000 -99.000 
 1980 219   218   6.20  17.90  13.30 -99.000   1.224   0.000   1.224   1.224   0.000   1.224   0.000   0.000  620.91  337.88    0.00  337.88    0.00    0.00 -99.000 -99.000 -99.000 
 1980 220   219  14.60  22.10  13.00 -99.000   2.249   0.000   2.249   2.249   0.000   2.249   0.000   0.000  623.16  340.13    0.00  340.13    0.00    0.00 -99.000 -99.000 -99.000 
 1980 221   220  15.40  22.00   9.90 -99.000   2.071   0.000   2.071   2.071   0.000   2.071   0.000   0.000  625.23  342.20    0.00  342.20    0.00    0.00 -99.000 -99.000 -99.000 
 1980 222   221  14.30  22.30   8.70 -99.000   1.990   0.000   1.990   1.946   0.000   1.946   0.000   0.000  627.22  344.15    0.00  344.15    0.00    0.00 -99.000 -99.000 -99.000 
 1980 223   222  14.80  25.30  12.80 -99.000   2.295   0.000   2.295   2.295   0.000   2.295   0.000   0.000  629.52  346.44    0.00  346.44    0.00    0.00 -99.000 -99.000 -99.000 
 1980 224   223  12.80  18.20  10.90 -99.000   1.663   0.000   1.663   1.663   0.000   1.663   0.000   0.000  631.18  348.10    0.00  348.10    0.00    0.00 -99.000 -99.000 -99.000 
 1980 225   224  16.20  17.80   5.40 -99.000   1.789   0.000   1.789   1.309   0.000   1.309   0.000   0.000  632.97  349.41    0.00  349.41    0.00    0.00 -99.000 -99.000 -99.000 
 1980 226   225  12.50  23.00   8.30 -99.000   1.728   0.000   1.728   1.046   0.000   1.046   0.000   0.000  634.70  350.46    0.00  350.46    0.00    0.00 -99.000 -99.000 -99.000 
 1980 227   226  16.00  21.90   9.50 -99.000   2.156   0.000   2.156   0.897   0.000   0.897   0.000   0.000  636.85  351.36    0.00  351.36    0.00    0.00 -99.000 -99.000 -99.000 
 1980 228   227  14.70  26.40  14.60 -99.000   2.317   0.000   2.317   0.704   0.000   0.704   0.000   0.000  639.17  352.06    0.00  352.06    0.00    0.00 -99.000 -99.000 -99.000 
 1980 229   228  12.10  28.60  16.20 -99.000   2.083   0.000   2.083   0.432   0.000   0.432   0.000   0.000  641.25  352.49    0.00  352.49    0.00    0.00 -99.000 -99.000 -99.000 
 1980 230   229   8.20  22.90  14.60 -99.000   1.596   0.000   1.596   1.596   0.000   1.596   0.000   0.000  642.85  354.09    0.00  354.09    0.00    0.00 -99.000 -99.000 -99.000 
 1980 231   230  12.50  21.40  10.90 -99.000   2.105   0.000   2.105   2.105   0.000   2.105   0.000   0.000  644.95  356.19    0.00  356.19    0.00    0.00 -99.000 -99.000 -99.000 
 1980 232   231   6.70  22.20  16.90 -99.000   1.457   0.000   1.457   1.457   0.000   1.457   0.000   0.000  646.41  357.65    0.00  357.65    0.00    0.00 -99.000 -99.000 -99.000 
 1980 233   232   8.10  18.40  11.50 -99.000   1.458   0.000   1.458   1.458   0.000   1.458   0.000   0.000  647.87  359.11    0.00  359.11    0.00    0.00 -99.000 -99.000 -99.000 
 1980 234   233   6.40  19.90  15.20 -99.000   1.344   0.000   1.344   1.000   0.000   1.000   0.000   0.000  649.21  360.11    0.00  360.11    0.00    0.00 -99.000 -99.000 -99.000 
 1980 235   234  11.30  17.20  10.60 -99.000   1.695   0.000   1.695   1.451   0.000   1.451   0.000   0.000  650.91  361.56    0.00  361.56    0.00    0.00 -99.000 -99.000 -99.000 
 1980 236   235  18.50  18.00   7.90 -99.000   2.411   0.000   2.411   2.411   0.000   2.411   0.000   0.000  653.32  363.97    0.00  363.97    0.00    0.00 -99.000 -99.000 -99.000 
 1980 237   236  15.80  19.50   5.60 -99.000   2.009   0.000   2.009   1.690   0.000   1.690   0.000   0.000  655.33  365.66    0.00  365.66    0.00    0.00 -99.000 -99.000 -99.000 
 1980 238   237  15.40  20.50   8.40 -99.000   2.108   0.000   2.108   1.508   0.000   1.508   0.000   0.000  657.44  367.17    0.00  367.17    0.00    0.00 -99.000 -99.000 -99.000 
 1980 239   238  15.00  14.80   6.90 -99.000   1.870   0.000   1.870   1.192   0.000   1.192   0.000   0.000  659.31  368.36    0.00  368.36    0.00    0.00 -99.000 -99.000 -99.000 
 1980 240   239  14.50  15.90   7.80 -99.000   1.915   0.000   1.915   0.863   0.000   0.863   0.000   0.000  661.22  369.22    0.00  369.22    0.00    0.00 -99.000 -99.000 -99.000 
 1980 241   240  17.70  19.50   5.80 -99.000   2.349   0.000   2.349   0.774   0.000   0.774   0.000   0.000  663.57  370.00    0.00  370.00    0.00    0.00 -99.000 -99.000 -99.000 
 1980 242   241  16.90  25.60  10.10 -99.000   2.516   0.000   2.516   0.707   0.000   0.707   0.000   0.000  666.09  370.70    0.00  370.70    0.00    0.00 -99.000 -99.000 -99.000 
 1980 243   242  11.00  25.00  13.10 -99.000   1.952   0.000   1.952   0.604   0.000   0.604   0.000   0.000  668.04  371.31    0.00  371.31    0.00    0.00 -99.000 -99.000 -99.000 
 1980 244   243   7.00  23.50  16.20 -99.000   1.468   0.000   1.468   0.352   0.000   0.352   0.000   0.000  669.51  371.66    0.00  371.66    0.00    0.00 -99.000 -99.000 -99.000 
 1980 245   244   7.10  22.50  16.90 -99.000   1.486   0.000   1.486   0.336   0.000   0.336   0.000   0.000  670.99  372.00    0.00  372.00    0.00    0.00 -99.000 -99.000 -99.000 
 1980 246   245  11.70  20.80  11.10 -99.000   1.878   0.000   1.878   0.322   0.000   0.322   0.000   0.000  672.87  372.32    0.00  372.32    0.00    0.00 -99.000 -99.000 -99.000 
 1980 247   246  16.20  23.30  13.40 -99.000   2.574   0.000   2.574   1.200   0.000   1.200   0.000   0.000  675.44  373.52    0.00  373.52    0.00    0.00 -99.000 -99.000 -99.000 
 1980 248   247  18.40  17.40   5.10 -99.000   2.288   0.000   2.288   0.880   0.000   0.880   0.000   0.000  677.73  374.40    0.00  374.40    0.00    0.00 -99.000 -99.000 -99.000 
 1980 249   248  20.00  19.80   4.60 -99.000   2.596   0.000   2.596   0.836   0.000   0.836   0.000   0.000  680.33  375.24    0.00  375.24    0.00    0.00 -99.000 -99.000 -99.000 
 1980 250   249  18.50  24.00   7.80 -99.000   2.641   0.000   2.641   0.754   0.000   0.754   0.000   0.000  682.97  375.99    0.00  375.99    0.00    0.00 -99.000 -99.000 -99.000 
 1980 251   250  19.00  28.60  10.60 -99.000   3.090   0.000   3.090   0.693   0.000   0.693   0.000   0.000  686.06  376.68    0.00  376.68    0.00    0.00 -99.000 -99.000 -99.000 
 1980 252   251   7.30  19.30  13.70 -99.000   1.482   0.000   1.482   1.200   0.000   1.200   0.000   0.000  687.54  377.88    0.00  377.88    0.00    0.00 -99.000 -99.000 -99.000 
 1980 253   252  18.30  20.50   9.30 -99.000   2.781   0.000   2.781   2.781   0.000   2.781   0.000   0.000  690.32  380.66    0.00  380.66    0.00    0.00 -99.000 -99.000 -99.000 
 1980 254   253  18.70  20.20   6.30 -99.000   2.699   0.000   2.699   0.851   0.000   0.851   0.000   0.000  693.02  381.51    0.00  381.51    0.00    0.00 -99.000 -99.000 -99.000 
 1980 255   254  19.70  23.90   8.60 -99.000   3.058   0.000   3.058   0.765   0.000   0.765   0.000   0.000  696.08  382.28    0.00  382.28    0.00    0.00 -99.000 -99.000 -99.000 
 1980 256   255  18.50  24.80  11.50 -99.000   3.123   0.000   3.123   0.701   0.000   0.701   0.000   0.000  699.20  382.98    0.00  382.98    0.00    0.00 -99.000 -99.000 -99.000 
 1980 257   256  17.40  29.40  16.00 -99.000   3.277   0.000   3.277   0.651   0.000   0.651   0.000   0.000  702.48  383.63    0.00  383.63    0.00    0.00 -99.000 -99.000 -99.000 
 1980 258   257   9.50  27.60  18.60 -99.000   2.114   0.000   2.114   1.210   0.000   1.210   0.000   0.000  704.59  384.84    0.00  384.84    0.00    0.00 -99.000 -99.000 -99.000 
 1980 259   258  10.10  17.50   9.50 -99.000   1.757   0.000   1.757   1.757   0.000   1.757   0.000   0.000  706.35  386.60    0.00  386.60    0.00    0.00 -99.000 -99.000 -99.000 
 1980 260   259  19.60  14.60   7.90 -99.000   2.738   0.000   2.738   0.849   0.000   0.849   0.000   0.000  709.09  387.45    0.00  387.45    0.00    0.00 -99.000 -99.000 -99.000 
 1980 261   260  21.20  17.70   4.50 -99.000   2.995   0.000   2.995   2.080   0.000   2.080   0.000   0.000  712.08  389.53    0.00  389.53    0.00    0.00 -99.000 -99.000 -99.000 
 1980 262   261  16.00  20.80   8.60 -99.000   2.559   0.000   2.559   0.729   0.000   0.729   0.000   0.000  714.64  390.26    0.00  390.26    0.00    0.00 -99.000 -99.000 -99.000 
 1980 263   262  13.70  22.90  11.50 -99.000   2.497   0.000   2.497   0.673   0.000   0.673   0.000   0.000  717.14  390.93    0.00  390.93    0.00    0.00 -99.000 -99.000 -99.000 
 1980 264   263  17.30  24.00  12.20 -99.000   2.978   0.000   2.978   0.628   0.000   0.628   0.000   0.000  720.12  391.56    0.00  391.56    0.00    0.00 -99.000 -99.000 -99.000 
 1980 265   264  16.80  20.50  10.50 -99.000   2.704   0.000   2.704   0.591   0.000   0.591   0.000   0.000  722.82  392.15    0.00  392.15    0.00    0.00 -99.000 -99.000 -99.000 
 1980 266   265  22.10  18.30   6.70 -99.000   3.117   0.000   3.117   0.560   0.000   0.560   0.000   0.000  725.94  392.71    0.00  392.71    0.00    0.00 -99.000 -99.000 -99.000 
 1980 267   266  21.50  21.50   5.50 -99.000   3.154   0.000   3.154   0.533   0.000   0.533   0.000   0.000  729.09  393.24    0.00  393.24    0.00    0.00 -99.000 -99.000 -99.000 
 1980 268   267  21.90  21.80   7.10 -99.000   3.253   0.000   3.253   0.510   0.000   0.510   0.000   0.000  732.35  393.75    0.00  393.75    0.00    0.00 -99.000 -99.000 -99.000 
 1980 269   268  21.60  19.10   7.30 -99.000   3.154   0.000   3.154   0.490   0.000   0.490   0.000   0.000  735.50  394.24    0.00  394.24    0.00    0.00 -99.000 -99.000 -99.000 
 1980 270   269  23.00  22.90   9.60 -99.000   3.589   0.000   3.589   0.472   0.000   0.472   0.000   0.000  739.09  394.71    0.00  394.71    0.00    0.00 -99.000 -99.000 -99.000 
 1980 271   270  10.30  19.70  11.40 -99.000   1.921   0.000   1.921   0.455   0.000   0.455   0.000   0.000  741.01  395.17    0.00  395.17    0.00    0.00 -99.000 -99.000 -99.000 
 1980 272   271   8.60  16.60  12.00 -99.000   1.656   0.000   1.656   0.441   0.000   0.441   0.000   0.000  742.67  395.61    0.00  395.61    0.00    0.00 -99.000 -99.000 -99.000 
 1980 273   272  16.80  22.40  11.80 -99.000   2.910   0.000   2.910   1.735   0.000   1.735   0.000   0.000  745.58  397.34    0.00  397.34    0.00    0.00 -99.000 -99.000 -99.000 
 1980 274   273  20.50  30.60  14.90 -99.000   4.088   0.000   4.088   0.570   0.000   0.570   0.000   0.000  749.66  397.92    0.00  397.92    0.00    0.00 -99.000 -99.000 -99.000 
 1980 275   274  19.40  30.20  17.20 -99.000   3.968   0.000   3.968   1.760   0.000   1.760   0.000   0.000  753.63  399.68    0.00  399.68    0.00    0.00 -99.000 -99.000 -99.000 
 1980 276   275  10.80  26.70  19.40 -99.000   2.480   0.000   2.480   2.480   0.000   2.480   0.000   0.000  756.11  402.15    0.00  402.15    0.00    0.00 -99.000 -99.000 -99.000 
 1980 277   276   9.10  22.80  18.10 -99.000   2.154   0.000   2.154   2.154   0.000   2.154   0.000   0.000  758.27  404.31    0.00  404.31    0.00    0.00 -99.000 -99.000 -99.000 
 1980 278   277   8.90  18.70  11.40 -99.000   1.897   0.000   1.897   1.897   0.000   1.897   0.000   0.000  760.16  406.21    0.00  406.21    0.00    0.00 -99.000 -99.000 -99.000 
 1980 279   278  22.20  17.40   9.20 -99.000   3.707   0.000   3.707   3.707   0.000   3.707   0.000   0.000  763.87  409.91    0.00  409.91    0.00    0.00 -99.000 -99.000 -99.000 
 1980 280   279  20.00  16.70   7.60 -99.000   3.142   0.000   3.142   2.084   0.000   2.084   0.000   0.000  767.01  412.00    0.00  412.00    0.00    0.00 -99.000 -99.000 -99.000 
 1980 281   280  20.00  21.40   8.90 -99.000   3.348   0.000   3.348   2.256   0.000   2.256   0.000   0.000  770.36  414.25    0.00  414.25    0.00    0.00 -99.000 -99.000 -99.000 
 1980 282   281  10.60  17.90  13.30 -99.000   2.054   0.000   2.054   1.360   0.000   1.360   0.000   0.000  772.41  415.61    0.00  415.61    0.00    0.00 -99.000 -99.000 -99.000 
 1980 283   282  16.60  22.10  13.10 -99.000   3.104   0.000   3.104   1.941   0.000   1.941   0.000   0.000  775.52  417.55    0.00  417.55    0.00    0.00 -99.000 -99.000 -99.000 
 1980 284   283  17.10  22.20  14.30 -99.000   3.300   0.000   3.300   2.466   0.000   2.466   0.000   0.000  778.82  420.02    0.00  420.02    0.00    0.00 -99.000 -99.000 -99.000 
 1980 285   284  10.90  20.40  15.50 -99.000   2.248   0.000   2.248   1.338   0.000   1.338   0.000   0.000  781.07  421.36    0.00  421.36    0.00    0.00 -99.000 -99.000 -99.000 
 1980 286   285  15.40  22.40  15.10 -99.000   2.986   0.000   2.986   1.060   0.000   1.060   0.000   0.000  784.05  422.42    0.00  422.42    0.00    0.00 -99.000 -99.000 -99.000 
 1980 287   286  21.80  23.70  14.20 -99.000   3.964   0.000   3.964   0.906   0.000   0.906   0.000   0.000  788.02  423.32    0.00  423.32    0.00    0.00 -99.000 -99.000 -99.000 
 1980 288   287  23.70  26.70  14.90 -99.000   4.442   0.000   4.442   2.305   0.000   2.305   0.000   0.000  792.46  425.63    0.00  425.63    0.00    0.00 -99.000 -99.000 -99.000 
 1980 289   288  23.00  26.70  14.80 -99.000   3.741   2.229   1.866   3.741   2.229   1.512   0.000   0.000  796.20  429.37    2.23  427.14    0.00    0.00 -99.000 -99.000 -99.000 
 1980 290   289  23.30  28.30  16.10 -99.000   3.898   2.005   1.898   3.898   2.005   1.894   0.000   0.000  800.10  433.27    4.23  429.03    0.00    0.00 -99.000 -99.000 -99.000 
 1980 291   290  19.30  31.80  17.60 -99.000   3.537   1.885   1.662   3.537   1.885   1.652   0.000   0.000  803.63  436.80    6.12  430.69    0.00    0.00 -99.000 -99.000 -99.000 
 1980 292   291   9.70  27.40  18.50 -99.000   2.000   1.111   0.898   2.000   1.111   0.888   0.000   0.000  805.63  438.80    7.23  431.57    0.00    0.00 -99.000 -99.000 -99.000 
 1980 293   292  12.50  25.50  17.60 -99.000   2.378   1.368   1.028   2.378   1.368   1.010   0.000   0.000  808.01  441.18    8.60  432.58    0.00    0.00 -99.000 -99.000 -99.000 
 1980 294   293   9.70  23.60  18.50 -99.000   1.923   1.142   0.800   1.923   1.142   0.781   0.000   0.000  809.93  443.11    9.74  433.37    0.00    0.00 -99.000 -99.000 -99.000 
 1980 295   294  12.40  24.40  19.20 -99.000   2.366   1.445   0.949   2.365   1.445   0.920   0.000   0.002  812.30  445.47   11.18  434.29    0.00    0.00 -99.000 -99.000 -99.000 
 1980 296   295  14.30  22.60  13.60 -99.000   2.400   1.508   0.923   2.398   1.508   0.890   0.000   0.002  814.70  447.87   12.69  435.18    0.00    0.00 -99.000 -99.000 -99.000 
 1980 297   296  19.70  20.40  11.30 -99.000   2.910   1.891   1.087   2.907   1.891   1.015   0.000   0.003  817.61  450.78   14.58  436.19    0.00    0.01 -99.000 -99.000 -99.000 
 1980 298   297  24.10  19.60   8.90 -99.000   3.299   2.418   1.208   3.296   2.418   0.878   0.000   0.003  820.91  454.07   17.00  437.07    0.00    0.01 -99.000 -99.000 -99.000 
 1980 299   298  20.40  26.30  14.60 -99.000   3.385   2.598   1.225   3.382   2.598   0.784   0.000   0.003  824.30  457.45   19.60  437.85    0.00    0.01 -99.000 -99.000 -99.000 
 1980 300   299  14.90  30.20  19.80 -99.000   2.935   1.963   1.021   2.932   1.963   0.969   0.000   0.003  827.23  460.38   21.56  438.82    0.00    0.02 -99.000 -99.000 -99.000 
 1980 301   300   9.90  25.20  20.60 -99.000   2.021   1.391   0.666   2.015   1.391   0.624   0.000   0.006  829.25  462.40   22.95  439.45    0.00    0.02 -99.000 -99.000 -99.000 
 1980 302   301  19.90  29.30  18.80 -99.000   3.578   2.630   1.128   3.571   2.630   0.940   0.000   0.008  832.83  465.97   25.58  440.39    0.00    0.03 -99.000 -99.000 -99.000 
 1980 303   302  17.50  27.50  18.20 -99.000   3.207   2.313   0.960   3.199   2.313   0.886   0.000   0.008  836.04  469.17   27.90  441.27    0.00    0.04 -99.000 -99.000 -99.000 
 1980 304   303  19.10  22.80  15.50 -99.000   3.038   2.241   0.863   3.025   2.241   0.784   0.000   0.013  839.08  472.19   30.14  442.06    0.00    0.05 -99.000 -99.000 -99.000 
 1980 305   304  28.10  20.80  11.80 -99.000   3.838   2.877   1.049   3.823   2.877   0.946   0.000   0.015  842.91  476.02   33.02  443.00    0.00    0.07 -99.000 -99.000 -99.000 
 1980 306   305  28.60  23.80   9.90 -99.000   4.020   3.039   1.075   4.002   3.039   0.963   0.000   0.017  846.93  480.02   36.05  443.97    0.00    0.08 -99.000 -99.000 -99.000 
 1980 307   306  28.00  27.30  13.00 -99.000   4.366   3.325   1.145   4.350   3.325   1.025   0.000   0.016  851.30  484.37   39.38  444.99    0.00    0.10 -99.000 -99.000 -99.000 
 1980 308   307  27.40  31.20  15.60 -99.000   4.652   3.585   1.176   4.638   3.585   1.052   0.000   0.014  855.95  489.01   42.97  446.04    0.00    0.11 -99.000 -99.000 -99.000 
 1980 309   308  26.70  29.10  18.40 -99.000   4.563   3.574   1.098   4.551   3.574   0.977   0.000   0.013  860.51  493.56   46.54  447.02    0.00    0.13 -99.000 -99.000 -99.000 
 1980 310   309  14.20  29.00  19.10 -99.000   2.742   2.184   0.624   2.730   2.184   0.546   0.000   0.012  863.26  496.29   48.72  447.57    0.00    0.14 -99.000 -99.000 -99.000 
 1980 311   310  10.30  22.30  18.60 -99.000   1.971   1.596   0.424   1.941   1.596   0.345   0.000   0.030  865.23  498.23   50.32  447.91    0.00    0.17 -99.000 -99.000 -99.000 
 1980 312   311  18.30  26.60  16.90 -99.000   3.207   2.627   0.663   3.176   2.627   0.548   0.000   0.031  868.43  501.41   52.95  448.46    0.00    0.20 -99.000 -99.000 -99.000 
 1980 313   312  16.70  24.90  15.70 -99.000   2.884   2.392   0.566   2.849   2.392   0.457   0.000   0.035  871.32  504.25   55.34  448.92    0.00    0.23 -99.000 -99.000 -99.000 
 1980 314   313  15.40  21.60  16.20 -99.000   2.603   2.183   0.487   2.561   2.183   0.378   0.000   0.042  873.92  506.82   57.52  449.29    0.00    0.27 -99.000 -99.000 -99.000 
 1980 315   314  14.60  21.00  13.10 -99.000   2.378   2.013   0.426   2.333   2.013   0.320   0.000   0.045  876.30  509.15   59.53  449.61    0.00    0.32 -99.000 -99.000 -99.000 
 1980 316   315  22.50  22.80  12.90 -99.000   3.405   2.903   0.590   3.356   2.903   0.453   0.000   0.050  879.70  512.50   62.44  450.07    0.00    0.37 -99.000 -99.000 -99.000 
 1980 317   316  26.40  24.00  12.80 -99.000   3.910   3.357   0.653   3.858   3.357   0.501   0.000   0.052  883.61  516.36   65.79  450.57    0.00    0.42 -99.000 -99.000 -99.000 
 1980 318   317  28.80  25.00  13.20 -99.000   4.292   3.709   0.692   4.250   3.709   0.541   0.000   0.042  887.91  520.61   69.50  451.11    0.00    0.46 -99.000 -99.000 -99.000 
 1980 319   318  28.50  30.60  15.40 -99.000   4.625   4.023   0.718   4.562   4.023   0.539   0.000   0.062  892.53  525.17   73.53  451.65    0.00    0.53 -99.000 -99.000 -99.000 
 1980 320   319  26.50  31.20  18.30 -99.000   4.556   3.998   0.671   4.506   3.998   0.509   0.000   0.050  897.09  529.68   77.52  452.16    0.00    0.58 -99.000 -99.000 -99.000 
 1980 321   320  18.50  29.70  19.90 -99.000   3.337   2.957   0.463   3.264   2.957   0.308   0.000   0.073  900.42  532.94   80.48  452.46    0.00    0.65 -99.000 -99.000 -99.000 
 1980 322   321  25.60  24.40  13.30 -99.000   3.828   3.424   0.498   3.756   3.424   0.332   0.000   0.072  904.25  536.70   83.90  452.80    0.00    0.72 -99.000 -99.000 -99.000 
 1980 323   322  17.90  27.60  17.10 -99.000   3.120   2.808   0.391   3.064   2.808   0.256   0.000   0.056  907.37  539.76   86.71  453.05    0.00    0.78 -99.000 -99.000 -99.000 
 1980 324   323  18.70  27.20  18.50 -99.000   3.311   3.000   0.391   3.242   3.000   0.241   0.000   0.069  910.68  543.01   89.71  453.29    0.00    0.85 -99.000 -99.000 -99.000 
 1980 325   324  14.60  28.50  18.90 -99.000   2.704   2.468   0.301   2.640   2.468   0.172   0.000   0.065  913.39  545.65   92.18  453.46    0.00    0.91 -99.000 -99.000 -99.000 
 1980 326   325  13.70  25.50  18.40 -99.000   2.497   2.293   0.263   2.438   2.293   0.145   0.000   0.059  915.88  548.08   94.47  453.61    0.00    0.97 -99.000 -99.000 -99.000 
 1980 327   326  11.30  26.70  21.70 -99.000   2.227   2.056   0.223   2.175   2.056   0.119   0.000   0.052  918.11  550.26   96.53  453.73    0.00    1.02 -99.000 -99.000 -99.000 
 1980 328   327  21.30  24.60  18.10 -99.000   3.490   3.239   0.331   3.410   3.239   0.171   0.000   0.080  921.60  553.67   99.77  453.90    0.00    1.10 -99.000 -99.000 -99.000 
 1980 329   328  30.20  26.50  12.50 -99.000   4.382   4.086   0.397   4.281   4.086   0.195   0.000   0.101  925.98  557.95  103.85  454.09    0.00    1.20 -99.000 -99.000 -99.000 
 1980 330   329  28.90  25.00  14.40 -99.000   4.286   4.009   0.375   4.187   4.009   0.178   0.000   0.098  930.27  562.14  107.86  454.27    0.00    1.30 -99.000 -99.000 -99.000 
 1980 331   330  20.40  25.20  12.00 -99.000   3.132   2.940   0.263   3.064   2.940   0.124   0.000   0.068  933.40  565.20  110.80  454.40    0.00    1.37 -99.000 -99.000 -99.000 
 1980 332   331  24.80  29.30  16.80 -99.000   4.102   3.862   0.331   4.057   3.862   0.195   0.000   0.045  937.50  569.26  114.66  454.59    0.00    1.42 -99.000 -99.000 -99.000 
 1980 333   332  10.90  24.70  19.60 -99.000   2.062   1.949   0.157   2.033   1.949   0.084   0.000   0.029  939.57  571.29  116.61  454.68    0.00    1.44 -99.000 -99.000 -99.000 
 1980 334   333  16.70  26.00  19.60 -99.000   2.970   2.817   0.215   2.951   2.817   0.134   0.000   0.019  942.54  574.24  119.43  454.81    0.00    1.46 -99.000 -99.000 -99.000 
 1980 335   334  19.50  28.40  20.70 -99.000   3.520   3.352   0.240   3.448   3.352   0.096   0.000   0.072  946.06  577.69  122.78  454.91    0.00    1.54 -99.000 -99.000 -99.000 
 1980 336   335  17.20  28.00  19.80 -99.000   3.118   2.981   0.198   3.056   2.981   0.075   0.000   0.061  949.17  580.74  125.76  454.98    0.00    1.60 -99.000 -99.000 -99.000 
 1980 337   336  13.40  26.90  20.90 -99.000   2.531   2.429   0.151   2.482   2.429   0.053   0.000   0.049  951.70  583.23  128.19  455.03    0.00    1.65 -99.000 -99.000 -99.000 
 1980 338   337  13.60  25.10  20.10 -99.000   2.510   2.415   0.143   2.463   2.415   0.047   0.000   0.048  954.21  585.69  130.61  455.08    0.00    1.69 -99.000 -99.000 -99.000 
 1980 339   338  21.10  25.40  19.60 -99.000   3.604   3.476   0.196   3.536   3.476   0.060   0.000   0.068  957.82  589.23  134.08  455.14    0.00    1.76 -99.000 -99.000 -99.000 
 1980 340   339  23.70  26.30  18.20 -99.000   3.927   3.797   0.203   3.855   3.797   0.058   0.000   0.072  961.75  593.08  137.88  455.20    0.00    1.83 -99.000 -99.000 -99.000 
 1980 341   340  28.30  29.50  17.60 -99.000   4.605   4.461   0.226   4.522   4.461   0.061   0.000   0.083  966.35  597.60  142.34  455.26    0.00    1.92 -99.000 -99.000 -99.000 
 1980 342   341  26.80  29.70  17.70 -99.000   4.484   4.351   0.211   4.405   4.351   0.053   0.000   0.079  970.83  602.01  146.69  455.31    0.00    1.99 -99.000 -99.000 -99.000 
 1980 343   342  30.70  31.90  18.80 -99.000   5.213   5.067   0.236   5.123   5.067   0.055   0.000   0.090  976.05  607.13  151.76  455.37    0.00    2.08 -99.000 -99.000 -99.000 
 1980 344   343  29.20  33.90  20.50 -99.000   5.168   5.030   0.226   5.079   5.030   0.049   0.000   0.088  981.22  612.21  156.79  455.42    0.00    2.17 -99.000 -99.000 -99.000 
 1980 345   344  26.40  33.80  21.40 -99.000   4.769   4.649   0.201   4.688   4.649   0.039   0.000   0.081  985.98  616.90  161.44  455.46    0.00    2.25 -99.000 -99.000 -99.000 
 1980 346   345  17.00  32.30  20.60 -99.000   3.224   3.148   0.130   3.170   3.148   0.023   0.000   0.054  989.21  620.07  164.59  455.48    0.00    2.31 -99.000 -99.000 -99.000 
 1980 347   346  27.50  27.90  19.90 -99.000   4.677   4.573   0.181   4.600   4.573   0.027   0.000   0.077  993.89  624.67  169.16  455.51    0.00    2.38 -99.000 -99.000 -99.000 
 1980 348   347  26.40  29.10  19.40 -99.000   4.546   4.450   0.170   4.471   4.450   0.022   0.000   0.074  998.43  629.14  173.61  455.53    0.00    2.46 -99.000 -99.000 -99.000 
 1980 349   348  28.00  28.70  18.10 -99.000   4.596   4.505   0.164   4.524   4.505   0.018   0.000   0.073   1003.    634.    178.    456.      0.      3. -99.000 -99.000 -99.000 
 1980 350   349  26.90  29.50  18.60 -99.000   4.435   4.351   0.153   4.366   4.351   0.015   0.000   0.069   1007.    638.    182.    456.      0.      3. -99.000 -99.000 -99.000 
 1980 351   350  29.60  28.40  18.10 -99.000   4.654   4.570   0.155   4.582   4.570   0.012   0.000   0.071   1012.    643.    187.    456.      0.      3. -99.000 -99.000 -99.000 
 1980 352   351  15.60  27.50  17.90 -99.000   2.801   2.752   0.090   2.758   2.752   0.006   0.000   0.042   1015.    645.    190.    456.      0.      3. -99.000 -99.000 -99.000 
 1980 353   352  14.10  25.10  20.30 -99.000   2.577   2.535   0.080   2.539   2.535   0.004   0.000   0.038   1017.    648.    192.    456.      0.      3. -99.000 -99.000 -99.000 
 1980 354   353  18.10  24.00  16.90 -99.000   3.010   2.963   0.092   2.966   2.963   0.003   0.000   0.044   1021.    651.    195.    456.      0.      3. -99.000 -99.000 -99.000 
 1980 355   354  21.50  23.90  16.10 -99.000   3.381   3.330   0.100   3.332   3.330   0.002   0.000   0.049   1024.    654.    199.    456.      0.      3. -99.000 -99.000 -99.000 
 1980 356   355  26.70  23.80  15.00 -99.000   3.988   3.929   0.116   3.930   3.929   0.000   0.000   0.058   1028.    658.    203.    456.      0.      3. -99.000 -99.000 -99.000 
 1980 357   356  29.00  24.90  15.20 -99.000   4.341   4.277   0.126   4.277   4.277   0.000   0.000   0.063   1032.    662.    207.    456.      0.      3. -99.000 -99.000 -99.000 
 1980 358   357  24.50  26.80  16.80 -99.000   3.974   3.916   0.115   3.916   3.916   0.000   0.000   0.058   1036.    666.    211.    456.      0.      3. -99.000 -99.000 -99.000 
 1980 359   358  28.20  28.00  17.20 -99.000   4.635   4.567   0.132   4.567   4.567   0.000   0.000   0.067   1041.    671.    215.    456.      0.      3. -99.000 -99.000 -99.000 
 1980 360   359  29.50  28.80  18.60 -99.000   4.893   4.821   0.139   4.821   4.821   0.000   0.000   0.072   1046.    676.    220.    456.      0.      3. -99.000 -99.000 -99.000 
 1980 361   360  22.50  29.20  19.20 -99.000   3.930   3.872   0.111   3.872   3.872   0.000   0.000   0.058   1050.    680.    224.    456.      0.      3. -99.000 -99.000 -99.000 
 1980 362   361  14.00  27.20  19.60 -99.000   2.602   2.564   0.072   2.564   2.564   0.000   0.000   0.038   1052.    682.    227.    456.      0.      3. -99.000 -99.000 -99.000 
 1980 363   362  17.80  28.00  20.00 -99.000   3.224   3.176   0.088   3.176   3.176   0.000   0.000   0.048   1055.    685.    230.    456.      0.      3. -99.000 -99.000 -99.000 
 1980 364   363  23.50  29.60  21.70 -99.000   4.226   4.163   0.114   4.163   4.163   0.000   0.000   0.063   1060.    689.    234.    456.      0.      3. -99.000 -99.000 -99.000 
 1980 365   364  27.50  29.60  21.30 -99.000   4.782   4.712   0.127   4.712   4.712   0.000   0.000   0.071   1064.    694.    239.    456.      0.      3. -99.000 -99.000 -99.000 
 1980 366   365  25.20  30.40  20.70 -99.000   4.430   4.365   0.115   4.365   4.365   0.000   0.000   0.065   1069.    699.    243.    456.      0.      4. -99.000 -99.000 -99.000 
 1981 001   366  24.00  33.00  21.30 -99.000   4.358   4.295   0.111   4.295   4.295   0.000   0.000   0.063   1073.    703.    247.    456.      0.      4. -99.000 -99.000 -99.000 
 1981 002   367  21.80  29.80  20.10 -99.000   3.893   3.837   0.097   3.837   3.837   0.000   0.000   0.056   1077.    707.    251.    456.      0.      4. -99.000 -99.000 -99.000 
 1981 003   368  17.30  28.20  21.60 -99.000   3.180   3.134   0.078   3.134   3.134   0.000   0.000   0.046   1080.    710.    254.    456.      0.      4. -99.000 -99.000 -99.000 
 1981 004   369  29.50  29.70  17.70 -99.000   4.758   4.689   0.114   4.689   4.689   0.000   0.000   0.068   1085.    715.    259.    456.      0.      4. -99.000 -99.000 -99.000 
 1981 005   370  29.80  33.10  19.00 -99.000   5.039   4.967   0.119   4.967   4.967   0.000   0.000   0.072   1090.    719.    264.    456.      0.      4. -99.000 -99.000 -99.000 
 1981 006   371  12.20  29.40  20.70 -99.000   2.394   2.359   0.056   2.359   2.359   0.000   0.000   0.034   1093.    722.    266.    456.      0.      4. -99.000 -99.000 -99.000 
 1981 007   372  29.10  28.00  19.40 -99.000   4.781   4.713   0.111   4.713   4.713   0.000   0.000   0.068   1097.    727.    271.    456.      0.      4. -99.000 -99.000 -99.000 
 1981 008   373  28.70  29.80  16.80 -99.000   4.961   3.702   2.606   3.820   3.702   0.118   0.000   0.866   1102.    730.    275.    456.      0.      5. -99.000 -99.000 -99.000 
 1981 009   374  29.80  30.40  17.40 -99.000   5.302   3.992   2.756   4.736   3.992   0.744   0.000   0.288   1108.    735.    279.    456.      0.      5. -99.000 -99.000 -99.000 
 1981 010   375  19.80  29.90  18.70 -99.000   3.794   2.898   1.937   3.539   2.898   0.641   0.000   0.094   1111.    739.    282.    457.      0.      5. -99.000 -99.000 -99.000 
 1981 011   376  19.60  30.90  21.00 -99.000   3.918   3.066   1.935   3.778   3.066   0.712   0.000   0.031   1115.    742.    285.    458.      0.      5. -99.000 -99.000 -99.000 
 1981 012   377  20.10  30.50  22.50 -99.000   4.010   3.224   1.899   3.898   3.224   0.674   0.000   0.062   1119.    746.    288.    458.      0.      5. -99.000 -99.000 -99.000 
 1981 013   378  24.60  29.60  20.60 -99.000   4.610   3.762   2.111   3.762   3.762   0.000   0.000   0.848   1124.    750.    292.    458.      0.      6. -99.000 -99.000 -99.000 
 1981 014   379  28.20  29.90  19.10 -99.000   5.037   4.168   2.219   4.692   4.168   0.524   0.000   0.345   1129.    755.    296.    459.      0.      6. -99.000 -99.000 -99.000 
 1981 015   380  24.10  27.00  17.80 -99.000   4.207   3.377   1.827   3.377   3.377   0.000   0.000   0.830   1133.    758.    299.    459.      0.      7. -99.000 -99.000 -99.000 
 1981 016   381  24.70  29.90  18.90 -99.000   4.524   3.755   1.936   4.240   3.755   0.485   0.000   0.284   1138.    762.    303.    459.      0.      8. -99.000 -99.000 -99.000 
 1981 017   382  19.20  30.90  22.30 -99.000   3.867   3.218   1.617   3.619   3.218   0.401   0.000   0.248   1142.    766.    306.    460.      0.      8. -99.000 -99.000 -99.000 
 1981 018   383  22.70  31.20  22.20 -99.000   4.425   3.577   1.796   3.577   3.577   0.000   0.000   0.849   1146.    770.    310.    460.      0.      9. -99.000 -99.000 -99.000 
 1981 019   384  16.90  29.20  20.70 -99.000   3.364   2.816   1.346   2.936   2.816   0.120   0.000   0.428   1149.    773.    313.    460.      0.      9. -99.000 -99.000 -99.000 
 1981 020   385  21.20  30.00  21.40 -99.000   4.060   3.172   1.582   3.172   3.172   0.000   0.000   0.888   1153.    776.    316.    460.      0.     10. -99.000 -99.000 -99.000 
 1981 021   386  28.70  25.30  17.80 -99.000   4.612   3.884   1.766   4.106   3.884   0.222   0.000   0.507   1158.    780.    320.    460.      0.     10. -99.000 -99.000 -99.000 
 1981 022   387  28.20  27.20  15.00 -99.000   4.524   3.810   1.718   4.344   3.810   0.533   0.000   0.180   1163.    784.    323.    461.      0.     11. -99.000 -99.000 -99.000 
 1981 023   388  24.70  30.10  17.20 -99.000   4.471   3.769   1.678   4.407   3.769   0.638   0.000   0.064   1167.    789.    327.    461.      0.     11. -99.000 -99.000 -99.000 
 1981 024   389  24.70  32.60  20.70 -99.000   4.783   4.030   1.785   4.759   4.030   0.729   0.000   0.023   1172.    793.    331.    462.      0.     11. -99.000 -99.000 -99.000 
 1981 025   390  15.90  30.80  21.80 -99.000   3.217   2.541   1.171   2.541   2.541   0.000   0.000   0.676   1175.    796.    334.    462.      0.     11. -99.000 -99.000 -99.000 
 1981 026   391  17.50  30.00  22.70 -99.000   3.495   2.973   1.236   3.150   2.973   0.177   0.000   0.345   1178.    799.    337.    462.      0.     12. -99.000 -99.000 -99.000 
 1981 027   392  26.40  33.30  23.00 -99.000   5.154   4.394   1.798   5.028   4.394   0.634   0.000   0.126   1184.    804.    341.    463.      0.     12. -99.000 -99.000 -99.000 
 1981 028   393  15.80  33.50  24.30 -99.000   3.369   2.875   1.169   3.323   2.875   0.447   0.000   0.046   1187.    807.    344.    463.      0.     12. -99.000 -99.000 -99.000 
 1981 029   394  15.90  30.20  21.70 -99.000   3.175   2.542   1.091   2.542   2.542   0.000   0.000   0.632   1190.    810.    347.    463.      0.     13. -99.000 -99.000 -99.000 
 1981 030   395  26.10  27.00  18.40 -99.000   4.441   3.809   1.507   4.040   3.809   0.230   0.000   0.401   1195.    814.    350.    464.      0.     13. -99.000 -99.000 -99.000 
 1981 031   396  20.90  29.00  17.70 -99.000   3.799   3.258   1.288   3.655   3.258   0.396   0.000   0.145   1198.    818.    354.    464.      0.     13. -99.000 -99.000 -99.000 
 1981 032   397  18.20  33.20  22.50 -99.000   3.743   3.213   1.255   3.691   3.213   0.478   0.000   0.052   1202.    821.    357.    464.      0.     13. -99.000 -99.000 -99.000 
 1981 033   398  21.60  32.10  22.80 -99.000   4.239   3.460   1.418   3.460   3.460   0.000   0.000   0.780   1206.    825.    360.    464.      0.     14. -99.000 -99.000 -99.000 
 1981 034   399  21.40  31.50  21.50 -99.000   4.197   3.608   1.392   3.892   3.608   0.284   0.000   0.304   1211.    829.    364.    465.      0.     14. -99.000 -99.000 -99.000 
 1981 035   400  18.10  24.90  19.20 -99.000   3.223   2.773   1.065   2.874   2.773   0.101   0.000   0.349   1214.    832.    367.    465.      0.     15. -99.000 -99.000 -99.000 
 1981 036   401  26.30  25.30  15.80 -99.000   4.316   3.001   2.439   3.905   3.001   0.904   0.000   0.127   1218.    835.    370.    466.      0.     15. -99.000 -99.000 -99.000 
 1981 037   402  18.20  27.20  16.60 -99.000   3.300   2.310   1.853   3.052   2.310   0.742   0.000   0.046   1221.    838.    372.    467.      0.     15. -99.000 -99.000 -99.000 
 1981 038   403  25.80  31.40  19.60 -99.000   4.845   3.420   2.700   4.561   3.420   1.142   0.000   0.017   1226.    843.    375.    468.      0.     15. -99.000 -99.000 -99.000 
 1981 039   404  18.20  32.90  21.80 -99.000   3.708   2.643   2.047   3.192   2.643   0.549   0.000   0.334   1230.    846.    378.    468.      0.     15. -99.000 -99.000 -99.000 
 1981 040   405  14.60  28.20  21.50 -99.000   2.927   2.110   1.597   2.676   2.110   0.565   0.000   0.124   1233.    849.    380.    469.      0.     15. -99.000 -99.000 -99.000 
 1981 041   406  10.80  25.90  20.60 -99.000   2.234   1.549   1.201   1.549   1.549   0.000   0.000   0.684   1235.    850.    382.    469.      0.     16. -99.000 -99.000 -99.000 
 1981 042   407  20.60  32.40  22.60 -99.000   4.198   3.116   2.219   3.678   3.116   0.562   0.000   0.393   1239.    854.    385.    469.      0.     16. -99.000 -99.000 -99.000 
 1981 043   408  19.60  33.20  23.40 -99.000   4.070   3.035   2.140   3.813   3.035   0.778   0.000   0.145   1243.    858.    388.    470.      0.     16. -99.000 -99.000 -99.000 
 1981 044   409  17.30  29.60  21.50 -99.000   3.405   2.560   1.772   2.560   2.560   0.000   0.000   0.778   1247.    861.    390.    470.      0.     17. -99.000 -99.000 -99.000 
 1981 045   410  10.20  24.00  17.50 -99.000   2.025   1.537   1.042   1.636   1.537   0.098   0.000   0.349   1249.    862.    392.    470.      0.     18. -99.000 -99.000 -99.000 
 1981 046   411  17.50  31.10  21.20 -99.000   3.532   2.692   1.807   2.692   2.692   0.000   0.000   0.826   1252.    865.    395.    470.      0.     18. -99.000 -99.000 -99.000 
 1981 047   412  14.20  28.10  20.10 -99.000   2.789   2.147   1.409   2.310   2.147   0.163   0.000   0.446   1255.    867.    397.    470.      0.     19. -99.000 -99.000 -99.000 
 1981 048   413  22.80  33.60  21.70 -99.000   4.491   3.493   2.237   3.623   3.493   0.130   0.000   0.839   1260.    871.    400.    471.      0.     20. -99.000 -99.000 -99.000 
 1981 049   414  22.60  33.80  22.90 -99.000   4.577   3.587   2.255   4.075   3.587   0.488   0.000   0.492   1264.    875.    404.    471.      0.     20. -99.000 -99.000 -99.000 
 1981 050   415  16.10  28.50  21.10 -99.000   3.148   2.303   1.545   2.303   2.303   0.000   0.000   0.845   1267.    877.    406.    471.      0.     21. -99.000 -99.000 -99.000 
 1981 051   416  17.60  29.90  21.70 -99.000   3.467   2.731   1.690   2.954   2.731   0.223   0.000   0.513   1271.    880.    409.    471.      0.     22. -99.000 -99.000 -99.000 
 1981 052   417  26.80  31.30  21.20 -99.000   4.955   3.909   2.392   4.764   3.909   0.855   0.000   0.191   1276.    885.    413.    472.      0.     22. -99.000 -99.000 -99.000 
 1981 053   418  25.40  31.70  22.20 -99.000   4.791   3.780   2.302   4.720   3.780   0.939   0.000   0.071   1281.    890.    417.    473.      0.     22. -99.000 -99.000 -99.000 
 1981 054   419  25.20  32.00  21.80 -99.000   4.750   3.747   2.275   4.723   3.747   0.976   0.000   0.027   1285.    894.    420.    474.      0.     22. -99.000 -99.000 -99.000 
 1981 055   420  26.60  32.80  22.50 -99.000   5.049   3.993   2.395   5.039   3.993   1.046   0.000   0.010   1290.    899.    424.    475.      0.     22. -99.000 -99.000 -99.000 
 1981 056   421  25.70  33.90  22.90 -99.000   4.908   3.885   2.321   4.904   3.885   1.019   0.000   0.004   1295.    904.    428.    476.      0.     22. -99.000 -99.000 -99.000 
 1981 057   422  22.70  33.60  23.10 -99.000   4.370   3.519   2.065   4.339   3.519   0.820   0.000   0.001   1300.    909.    432.    477.      0.     22. -99.000 -99.000 -99.000 
 1981 058   423  25.40  34.90  24.10 -99.000   4.945   3.924   2.340   4.531   3.924   0.607   0.000   0.414   1305.    913.    436.    477.      0.     22. -99.000 -99.000 -99.000 
 1981 059   424  17.30  29.80  22.90 -99.000   3.361   2.674   1.583   2.888   2.674   0.213   0.000   0.474   1308.    916.    438.    478.      0.     23. -99.000 -99.000 -99.000 
 1981 060   425  22.10  29.60  18.10 -99.000   3.827   3.050   1.788   3.127   3.050   0.077   0.000   0.700   1312.    919.    441.    478.      0.     23. -99.000 -99.000 -99.000 
 1981 061   426  16.80  31.20  18.70 -99.000   3.211   2.558   1.495   2.951   2.558   0.393   0.000   0.260   1315.    922.    444.    478.      0.     24. -99.000 -99.000 -99.000 
 1981 062   427  11.40  26.00  19.90 -99.000   2.224   1.650   1.023   1.650   1.650   0.000   0.000   0.573   1317.    924.    446.    478.      0.     24. -99.000 -99.000 -99.000 
 1981 063   428  22.50  26.50  16.30 -99.000   3.639   2.907   1.654   3.114   2.907   0.207   0.000   0.525   1321.    927.    448.    478.      0.     25. -99.000 -99.000 -99.000 
 1981 064   429  21.00  29.50  17.00 -99.000   3.707   2.472   2.171   2.739   2.472   0.267   0.000   0.697   1325.    930.    451.    479.      0.     26. -99.000 -99.000 -99.000 
 1981 065   430  18.30  29.20  19.50 -99.000   3.386   2.298   1.955   2.906   2.298   0.608   0.000   0.264   1328.    932.    453.    479.      0.     26. -99.000 -99.000 -99.000 
 1981 066   431  13.50  25.90  19.60 -99.000   2.515   1.746   1.424   2.284   1.746   0.539   0.000   0.100   1331.    935.    455.    480.      0.     26. -99.000 -99.000 -99.000 
 1981 067   432  18.00  26.60  16.90 -99.000   3.091   2.193   1.714   2.927   2.193   0.734   0.000   0.038   1334.    938.    457.    481.      0.     26. -99.000 -99.000 -99.000 
 1981 068   433  23.10  28.10  16.50 -99.000   3.784   2.740   2.055   3.654   2.740   0.914   0.000   0.015   1337.    941.    460.    481.      0.     26. -99.000 -99.000 -99.000 
 1981 069   434  23.00  29.00  17.00 -99.000   3.797   2.805   2.017   3.712   2.805   0.907   0.000   0.006   1341.    945.    463.    482.      0.     26. -99.000 -99.000 -99.000 
 1981 070   435  19.10  29.20  18.80 -99.000   3.374   2.546   1.749   3.334   2.546   0.788   0.000   0.002   1345.    948.    465.    483.      0.     26. -99.000 -99.000 -99.000 
 1981 071   436  20.90  29.20  17.80 -99.000   3.564   2.753   1.792   3.368   2.739   0.629   0.000   0.179   1348.    952.    468.    484.      0.     26. -99.000 -99.000 -99.000 
[...]
 2016 257 13405  14.50  19.00  13.80 -99.000   2.175   0.000   2.175   1.719   0.000   1.719   0.000   0.000  35439.  22968.   7938.  15029.      0.    979. -99.000 -99.000 -99.000 
 2016 258 13406  13.90  15.60  11.00 -99.000   1.921   0.000   1.921   1.921   0.000   1.921   0.000   0.000  35441.  22970.   7938.  15031.      0.    979. -99.000 -99.000 -99.000 
 2016 259 13407  11.70  14.80   9.20 -99.000   1.661   0.000   1.661   1.661   0.000   1.661   0.000   0.000  35443.  22971.   7938.  15033.      0.    979. -99.000 -99.000 -99.000 
 2016 260 13408  16.50  18.80   6.20 -99.000   2.198   0.000   2.198   1.758   0.000   1.758   0.000   0.000  35445.  22973.   7938.  15035.      0.    979. -99.000 -99.000 -99.000 
 2016 261 13409  17.40  18.30  10.90 -99.000   2.422   0.000   2.422   2.422   0.000   2.422   0.000   0.000  35447.  22975.   7938.  15037.      0.    979. -99.000 -99.000 -99.000 
 2016 262 13410  16.80  18.60  12.00 -99.000   2.435   0.000   2.435   1.582   0.000   1.582   0.000   0.000  35450.  22977.   7938.  15039.      0.    979. -99.000 -99.000 -99.000 
 2016 263 13411  14.80  15.80   9.20 -99.000   2.042   0.000   2.042   1.167   0.000   1.167   0.000   0.000  35452.  22978.   7938.  15040.      0.    979. -99.000 -99.000 -99.000 
 2016 264 13412  14.40  18.90  12.10 -99.000   2.185   0.000   2.185   0.970   0.000   0.970   0.000   0.000  35454.  22979.   7938.  15041.      0.    979. -99.000 -99.000 -99.000 
 2016 265 13413  16.50  21.00  12.60 -99.000   2.534   0.000   2.534   0.948   0.000   0.948   0.000   0.000  35457.  22980.   7938.  15042.      0.    979. -99.000 -99.000 -99.000 
 2016 266 13414  19.70  24.10  13.90 -99.000   3.097   0.000   3.097   0.763   0.000   0.763   0.000   0.000  35460.  22981.   7938.  15043.      0.    979. -99.000 -99.000 -99.000 
 2016 267 13415  21.20  18.60  11.00 -99.000   2.858   0.000   2.858   0.699   0.000   0.699   0.000   0.000  35462.  22982.   7938.  15043.      0.    979. -99.000 -99.000 -99.000 
 2016 268 13416  18.60  15.60   6.00 -99.000   2.350   0.000   2.350   0.506   0.000   0.506   0.000   0.000  35465.  22982.   7938.  15044.      0.    979. -99.000 -99.000 -99.000 
 2016 269 13417  18.00  15.30   8.60 -99.000   2.371   0.000   2.371   0.379   0.000   0.379   0.000   0.000  35467.  22982.   7938.  15044.      0.    979. -99.000 -99.000 -99.000 
 2016 270 13418  18.30  16.40   7.60 -99.000   2.436   0.000   2.436   0.360   0.000   0.360   0.000   0.000  35470.  22983.   7938.  15045.      0.    979. -99.000 -99.000 -99.000 
 2016 271 13419  21.50  20.20   6.40 -99.000   2.909   0.000   2.909   0.343   0.000   0.343   0.000   0.000  35473.  22983.   7938.  15045.      0.    979. -99.000 -99.000 -99.000 
 2016 272 13420  22.30  21.20   9.90 -99.000   3.164   0.000   3.164   0.428   0.000   0.428   0.000   0.000  35476.  22984.   7938.  15045.      0.    979. -99.000 -99.000 -99.000 
 2016 273 13421  22.70  16.60  11.20 -99.000   3.023   0.000   3.023   0.315   0.000   0.315   0.000   0.000  35479.  22984.   7938.  15046.      0.    979. -99.000 -99.000 -99.000 
 2016 274 13422  21.90  17.80  10.50 -99.000   2.997   0.000   2.997   0.303   0.000   0.303   0.000   0.000  35482.  22984.   7938.  15046.      0.    979. -99.000 -99.000 -99.000 
 2016 275 13423  21.10  20.00  12.10 -99.000   3.085   0.000   3.085   0.293   0.000   0.293   0.000   0.000  35485.  22985.   7938.  15046.      0.    979. -99.000 -99.000 -99.000 
 2016 276 13424  20.30  20.70  12.90 -99.000   3.065   0.000   3.065   0.283   0.000   0.283   0.000   0.000  35488.  22985.   7938.  15047.      0.    979. -99.000 -99.000 -99.000 
 2016 277 13425  19.20  20.10  14.20 -99.000   2.982   0.000   2.982   0.274   0.000   0.274   0.000   0.000  35491.  22985.   7938.  15047.      0.    979. -99.000 -99.000 -99.000 
 2016 278 13426  16.80  19.20  13.80 -99.000   2.642   0.000   2.642   0.266   0.000   0.266   0.000   0.000  35493.  22985.   7938.  15047.      0.    979. -99.000 -99.000 -99.000 
 2016 279 13427  12.70  19.70  14.10 -99.000   2.155   0.000   2.155   0.359   0.000   0.359   0.000   0.000  35496.  22986.   7938.  15047.      0.    979. -99.000 -99.000 -99.000 
 2016 280 13428  17.90  20.40  13.10 -99.000   2.814   0.000   2.814   0.452   0.000   0.452   0.000   0.000  35498.  22986.   7938.  15048.      0.    979. -99.000 -99.000 -99.000 
 2016 281 13429  17.60  21.60  12.80 -99.000   2.825   0.000   2.825   0.346   0.000   0.346   0.000   0.000  35501.  22986.   7938.  15048.      0.    979. -99.000 -99.000 -99.000 
 2016 282 13430  19.10  18.60  10.50 -99.000   2.795   0.000   2.795   0.240   0.000   0.240   0.000   0.000  35504.  22987.   7938.  15048.      0.    979. -99.000 -99.000 -99.000 
 2016 283 13431  24.90  20.00   6.00 -99.000   3.325   0.000   3.325   1.120   0.000   1.120   0.000   0.000  35507.  22988.   7938.  15050.      0.    979. -99.000 -99.000 -99.000 
 2016 284 13432  23.90  22.60   9.40 -99.000   3.403   0.000   3.403   0.694   0.000   0.694   0.000   0.000  35511.  22989.   7938.  15050.      0.    979. -99.000 -99.000 -99.000 
 2016 285 13433  23.40  22.50  13.50 -99.000   3.579   0.000   3.579   0.645   0.000   0.645   0.000   0.000  35514.  22989.   7938.  15051.      0.    979. -99.000 -99.000 -99.000 
 2016 286 13434  18.40  23.60  15.50 -99.000   3.129   0.000   3.129   0.605   0.000   0.605   0.000   0.000  35518.  22990.   7938.  15052.      0.    979. -99.000 -99.000 -99.000 
 2016 287 13435  16.50  26.70  16.30 -99.000   3.029   0.000   3.029   0.640   0.000   0.640   0.000   0.000  35521.  22990.   7938.  15052.      0.    979. -99.000 -99.000 -99.000 
 2016 288 13436  17.50  22.20  15.40 -99.000   2.976   0.000   2.976   1.440   0.000   1.440   0.000   0.000  35524.  22992.   7938.  15054.      0.    979. -99.000 -99.000 -99.000 
 2016 289 13437  15.50  21.20  15.80 -99.000   2.688   0.000   2.688   1.300   0.000   1.300   0.000   0.000  35526.  22993.   7938.  15055.      0.    979. -99.000 -99.000 -99.000 
 2016 290 13438  11.20  25.10  17.40 -99.000   2.227   0.000   2.227   2.227   0.000   2.227   0.000   0.000  35528.  22995.   7938.  15057.      0.    979. -99.000 -99.000 -99.000 
 2016 291 13439  10.00  22.20  16.60 -99.000   1.961   0.000   1.961   1.961   0.000   1.961   0.000   0.000  35530.  22997.   7938.  15059.      0.    979. -99.000 -99.000 -99.000 
 2016 292 13440   7.10  17.20  13.40 -99.000   1.416   0.000   1.416   1.416   0.000   1.416   0.000   0.000  35532.  22999.   7938.  15060.      0.    979. -99.000 -99.000 -99.000 
 2016 293 13441   6.20  18.10  15.50 -99.000   1.332   0.000   1.332   1.332   0.000   1.332   0.000   0.000  35533.  23000.   7938.  15062.      0.    979. -99.000 -99.000 -99.000 
 2016 294 13442   8.80  18.90  14.00 -99.000   1.684   0.000   1.684   1.684   0.000   1.684   0.000   0.000  35535.  23002.   7938.  15064.      0.    979. -99.000 -99.000 -99.000 
 2016 295 13443  19.20  18.30  12.70 -99.000   3.002   0.000   3.002   3.002   0.000   3.002   0.000   0.000  35538.  23005.   7938.  15067.      0.    979. -99.000 -99.000 -99.000 
 2016 296 13444  22.80  20.70   9.60 -99.000   3.457   0.000   3.457   2.960   0.000   2.960   0.000   0.000  35541.  23008.   7938.  15069.      0.    979. -99.000 -99.000 -99.000 
 2016 297 13445  22.20  22.70  15.20 -99.000   3.720   0.000   3.720   2.833   0.000   2.833   0.000   0.000  35545.  23011.   7938.  15072.      0.    979. -99.000 -99.000 -99.000 
 2016 298 13446  15.60  19.50  17.10 -99.000   2.732   0.000   2.732   1.827   0.000   1.827   0.000   0.000  35548.  23012.   7938.  15074.      0.    979. -99.000 -99.000 -99.000 
 2016 299 13447   8.50  19.00  17.00 -99.000   1.706   0.000   1.706   1.706   0.000   1.706   0.000   0.000  35549.  23014.   7938.  15076.      0.    979. -99.000 -99.000 -99.000 
 2016 300 13448   7.80  21.90  17.00 -99.000   1.655   0.000   1.655   1.399   0.000   1.399   0.000   0.000  35551.  23016.   7938.  15077.      0.    979. -99.000 -99.000 -99.000 
 2016 301 13449  11.20  19.70  11.00 -99.000   1.991   0.000   1.991   1.991   0.000   1.991   0.000   0.000  35553.  23018.   7938.  15079.      0.    979. -99.000 -99.000 -99.000 
 2016 302 13450  18.20  17.40  10.00 -99.000   2.759   0.000   2.759   2.759   0.000   2.759   0.000   0.000  35556.  23020.   7938.  15082.      0.    979. -99.000 -99.000 -99.000 
 2016 303 13451  25.50  20.80   7.90 -99.000   3.754   0.000   3.754   3.232   0.000   3.232   0.000   0.000  35560.  23024.   7938.  15085.      0.    979. -99.000 -99.000 -99.000 
 2016 304 13452  28.20  24.00  13.10 -99.000   4.536   0.000   4.536   2.804   0.000   2.804   0.000   0.000  35564.  23026.   7938.  15088.      0.    979. -99.000 -99.000 -99.000 
 2016 305 13453  24.70  27.90  15.70 -99.000   4.398   0.000   4.398   1.425   0.000   1.425   0.000   0.000  35569.  23028.   7938.  15089.      0.    979. -99.000 -99.000 -99.000 
 2016 306 13454  16.10  23.30  17.40 -99.000   2.943   0.000   2.943   1.101   0.000   1.101   0.000   0.000  35571.  23029.   7938.  15091.      0.    979. -99.000 -99.000 -99.000 
 2016 307 13455  11.00  19.30  13.10 -99.000   2.009   0.000   2.009   1.268   0.000   1.268   0.000   0.000  35573.  23030.   7938.  15092.      0.    979. -99.000 -99.000 -99.000 
 2016 308 13456  27.00  23.60   9.70 -99.000   4.154   0.000   4.154   4.154   0.000   4.154   0.000   0.000  35578.  23034.   7938.  15096.      0.    979. -99.000 -99.000 -99.000 
 2016 309 13457  29.10  29.00  14.70 -99.000   4.881   0.000   4.881   3.160   0.000   3.160   0.000   0.000  35583.  23037.   7938.  15099.      0.    979. -99.000 -99.000 -99.000 
 2016 310 13458  28.80  27.80  15.10 -99.000   4.826   0.000   4.826   1.768   0.000   1.768   0.000   0.000  35587.  23039.   7938.  15101.      0.    979. -99.000 -99.000 -99.000 
 2016 311 13459  28.50  27.50  16.80 -99.000   4.922   0.000   4.922   1.233   0.000   1.233   0.000   0.000  35592.  23040.   7938.  15102.      0.    979. -99.000 -99.000 -99.000 
 2016 312 13460  27.40  30.20  17.80 -99.000   5.085   0.000   5.085   1.006   0.000   1.006   0.000   0.000  35597.  23041.   7938.  15103.      0.    979. -99.000 -99.000 -99.000 
 2016 313 13461  18.80  23.10  17.40 -99.000   3.341   0.000   3.341   0.872   0.000   0.872   0.000   0.000  35601.  23042.   7938.  15104.      0.    979. -99.000 -99.000 -99.000 
 2016 314 13462  16.70  24.70  18.60 -99.000   3.188   0.000   3.188   0.880   0.000   0.880   0.000   0.000  35604.  23043.   7938.  15105.      0.    979. -99.000 -99.000 -99.000 
 2016 315 13463  17.60  27.80  16.50 -99.000   3.354   0.000   3.354   0.596   0.000   0.596   0.000   0.000  35607.  23044.   7938.  15105.      0.    979. -99.000 -99.000 -99.000 
 2016 316 13464  25.50  21.90  14.20 -99.000   4.035   0.000   4.035   0.737   0.000   0.737   0.000   0.000  35611.  23045.   7938.  15106.      0.    979. -99.000 -99.000 -99.000 
 2016 317 13465  28.20  24.40   9.40 -99.000   4.323   0.000   4.323   0.680   0.000   0.680   0.000   0.000  35616.  23045.   7938.  15107.      0.    979. -99.000 -99.000 -99.000 
 2016 318 13466  29.00  25.20  14.30 -99.000   4.744   0.000   4.744   0.633   0.000   0.633   0.000   0.000  35620.  23046.   7938.  15108.      0.    979. -99.000 -99.000 -99.000 
 2016 319 13467  27.80  29.30  17.00 -99.000   5.060   0.000   5.060   0.432   0.000   0.432   0.000   0.000  35625.  23046.   7938.  15108.      0.    979. -99.000 -99.000 -99.000 
 2016 320 13468  20.90  29.10  18.40 -99.000   3.967   0.000   3.967   0.345   0.000   0.345   0.000   0.000  35629.  23047.   7938.  15108.      0.    979. -99.000 -99.000 -99.000 
 2016 321 13469  23.60  23.30  18.00 -99.000   4.174   0.000   4.174   0.330   0.000   0.330   0.000   0.000  35634.  23047.   7938.  15109.      0.    979. -99.000 -99.000 -99.000 
 2016 322 13470  14.90  19.80  12.20 -99.000   2.566   0.000   2.566   1.237   0.000   1.237   0.000   0.000  35636.  23048.   7938.  15110.      0.    979. -99.000 -99.000 -99.000 
 2016 323 13471  16.10  19.70  11.30 -99.000   2.704   0.000   2.704   1.730   0.000   1.730   0.000   0.000  35639.  23050.   7938.  15112.      0.    979. -99.000 -99.000 -99.000 
 2016 324 13472  23.80  22.80  11.60 -99.000   3.876   0.000   3.876   2.432   0.000   2.432   0.000   0.000  35643.  23052.   7938.  15114.      0.    979. -99.000 -99.000 -99.000 
 2016 325 13473  20.80  23.40  13.70 -99.000   3.541   0.000   3.541   1.368   0.000   1.368   0.000   0.000  35646.  23054.   7938.  15115.      0.    979. -99.000 -99.000 -99.000 
 2016 326 13474  21.50  19.80  13.30 -99.000   3.483   0.000   3.483   1.075   0.000   1.075   0.000   0.000  35650.  23055.   7938.  15116.      0.    979. -99.000 -99.000 -99.000 
 2016 327 13475  25.60  20.50   9.60 -99.000   3.917   0.000   3.917   0.915   0.000   0.915   0.000   0.000  35654.  23056.   7938.  15117.      0.    979. -99.000 -99.000 -99.000 
 2016 328 13476  28.50  26.20  10.60 -99.000   4.683   0.000   4.683   0.811   0.000   0.811   0.000   0.000  35658.  23057.   7938.  15118.      0.    979. -99.000 -99.000 -99.000 
 2016 329 13477  30.20  24.30  12.20 -99.000   4.802   0.000   4.802   0.735   0.000   0.735   0.000   0.000  35663.  23057.   7938.  15119.      0.    979. -99.000 -99.000 -99.000 
 2016 330 13478  29.00  24.40  16.10 -99.000   4.932   0.000   4.932   0.678   0.000   0.678   0.000   0.000  35668.  23058.   7938.  15120.      0.    979. -99.000 -99.000 -99.000 
 2016 331 13479  25.30  26.90  18.20 -99.000   4.677   0.000   4.677   0.632   0.000   0.632   0.000   0.000  35673.  23059.   7938.  15120.      0.    979. -99.000 -99.000 -99.000 
 2016 332 13480  18.30  25.10  19.60 -99.000   3.527   0.000   3.527   2.317   0.000   2.317   0.000   0.000  35676.  23061.   7938.  15123.      0.    979. -99.000 -99.000 -99.000 
 2016 333 13481  17.30  23.30  16.70 -99.000   3.196   0.000   3.196   3.196   0.000   3.196   0.000   0.000  35679.  23064.   7938.  15126.      0.    979. -99.000 -99.000 -99.000 
 2016 334 13482  27.30  23.40  13.60 -99.000   4.521   0.000   4.521   3.028   0.000   3.028   0.000   0.000  35684.  23067.   7938.  15129.      0.    979. -99.000 -99.000 -99.000 
 2016 335 13483  29.50  25.20  11.90 -99.000   4.833   0.000   4.833   1.915   0.000   1.915   0.000   0.000  35689.  23069.   7938.  15131.      0.    979. -99.000 -99.000 -99.000 
 2016 336 13484  30.90  26.40  15.70 -99.000   5.274   0.000   5.274   1.278   0.000   1.278   0.000   0.000  35694.  23070.   7938.  15132.      0.    979. -99.000 -99.000 -99.000 
 2016 337 13485  27.10  29.70  17.70 -99.000   5.064   0.000   5.064   1.030   0.000   1.030   0.000   0.000  35699.  23071.   7938.  15133.      0.    979. -99.000 -99.000 -99.000 
 2016 338 13486  16.80  25.10  19.60 -99.000   3.267   0.000   3.267   1.660   0.000   1.660   0.000   0.000  35702.  23073.   7938.  15135.      0.    979. -99.000 -99.000 -99.000 
 2016 339 13487  15.40  26.30  18.90 -99.000   3.088   0.000   3.088   1.785   0.000   1.785   0.000   0.000  35705.  23075.   7938.  15136.      0.    979. -99.000 -99.000 -99.000 
 2016 340 13488  27.90  27.60  17.50 -99.000   5.112   0.000   5.112   0.858   0.000   0.858   0.000   0.000  35711.  23076.   7938.  15137.      0.    979. -99.000 -99.000 -99.000 
 2016 341 13489  29.60  29.50  19.20 -99.000   5.545   0.000   5.545   0.770   0.000   0.770   0.000   0.000  35716.  23076.   7938.  15138.      0.    979. -99.000 -99.000 -99.000 
 2016 342 13490  27.70  29.20  15.40 -99.000   4.943   0.000   4.943   0.705   0.000   0.705   0.000   0.000  35721.  23077.   7938.  15139.      0.    979. -99.000 -99.000 -99.000 
 2016 343 13491  25.20  24.70  16.50 -99.000   4.358   0.000   4.358   0.654   0.000   0.654   0.000   0.000  35725.  23078.   7938.  15139.      0.    979. -99.000 -99.000 -99.000 
 2016 344 13492  27.50  23.80   9.50 -99.000   4.380   0.000   4.380   0.612   0.000   0.612   0.000   0.000  35730.  23078.   7938.  15140.      0.    979. -99.000 -99.000 -99.000 
 2016 345 13493  28.30  29.70  15.50 -99.000   5.139   0.000   5.139   0.578   0.000   0.578   0.000   0.000  35735.  23079.   7938.  15141.      0.    979. -99.000 -99.000 -99.000 
 2016 346 13494  27.70  28.70  18.00 -99.000   4.934   0.000   4.934   0.435   0.000   0.435   0.000   0.000  35740.  23079.   7938.  15141.      0.    979. -99.000 -99.000 -99.000 
 2016 347 13495  30.50  32.30  14.50 -99.000   5.497   0.000   5.497   0.316   0.000   0.316   0.000   0.000  35745.  23080.   7938.  15141.      0.    979. -99.000 -99.000 -99.000 
 2016 348 13496  23.80  28.00  18.20 -99.000   4.362   0.000   4.362   0.305   0.000   0.305   0.000   0.000  35750.  23080.   7938.  15142.      0.    979. -99.000 -99.000 -99.000 
 2016 349 13497  26.10  21.70  11.60 -99.000   4.121   0.000   4.121   0.628   0.000   0.628   0.000   0.000  35754.  23081.   7938.  15142.      0.    979. -99.000 -99.000 -99.000 
 2016 350 13498  31.20  24.20   9.70 -99.000   4.825   0.000   4.825   0.605   0.000   0.605   0.000   0.000  35759.  23081.   7938.  15143.      0.    979. -99.000 -99.000 -99.000 
 2016 351 13499  30.80  26.60  15.30 -99.000   5.211   0.000   5.211   0.421   0.000   0.421   0.000   0.000  35764.  23082.   7938.  15143.      0.    979. -99.000 -99.000 -99.000 
 2016 352 13500  30.00  31.30  18.80 -99.000   5.704   0.000   5.704   0.268   0.000   0.268   0.000   0.000  35770.  23082.   7938.  15144.      0.    979. -99.000 -99.000 -99.000 
 2016 353 13501  26.20  33.30  21.30 -99.000   5.347   0.000   5.347   0.261   0.000   0.261   0.000   0.000  35775.  23082.   7938.  15144.      0.    979. -99.000 -99.000 -99.000 
 2016 354 13502  19.70  27.80  20.40 -99.000   3.881   0.000   3.881   0.254   0.000   0.254   0.000   0.000  35779.  23082.   7938.  15144.      0.    979. -99.000 -99.000 -99.000 
 2016 355 13503  22.80  29.20  16.50 -99.000   4.333   0.000   4.333   4.333   0.000   4.333   0.000   0.000  35783.  23087.   7938.  15148.      0.    979. -99.000 -99.000 -99.000 
 2016 356 13504  30.80  29.50  16.40 -99.000   5.575   0.000   5.575   4.012   0.000   4.012   0.000   0.000  35789.  23091.   7938.  15152.      0.    979. -99.000 -99.000 -99.000 
 2016 357 13505  27.80  33.10  20.60 -99.000   5.609   0.000   5.609   1.868   0.000   1.868   0.000   0.000  35794.  23093.   7938.  15154.      0.    979. -99.000 -99.000 -99.000 
 2016 358 13506  20.30  28.20  21.60 -99.000   4.058   0.000   4.058   3.153   0.000   3.153   0.000   0.000  35798.  23096.   7938.  15158.      0.    979. -99.000 -99.000 -99.000 
 2016 359 13507  21.10  27.80  17.20 -99.000   4.014   0.000   4.014   3.787   0.000   3.787   0.000   0.000  35802.  23100.   7938.  15161.      0.    979. -99.000 -99.000 -99.000 
 2016 360 13508  22.10  30.20  19.50 -99.000   4.404   0.000   4.404   3.176   0.000   3.176   0.000   0.000  35807.  23103.   7938.  15164.      0.    979. -99.000 -99.000 -99.000 
 2016 361 13509  18.50  26.30  21.10 -99.000   3.687   0.000   3.687   3.259   0.000   3.259   0.000   0.000  35811.  23106.   7938.  15168.      0.    979. -99.000 -99.000 -99.000 
 2016 362 13510  10.90  24.00  20.20 -99.000   2.303   0.000   2.303   2.303   0.000   2.303   0.000   0.000  35813.  23108.   7938.  15170.      0.    979. -99.000 -99.000 -99.000 
 2016 363 13511  13.50  26.90  19.20 -99.000   2.798   0.000   2.798   2.798   0.000   2.798   0.000   0.000  35816.  23111.   7938.  15173.      0.    979. -99.000 -99.000 -99.000 
 2016 364 13512  19.80  26.90  19.90 -99.000   3.876   0.000   3.876   3.365   0.000   3.365   0.000   0.000  35820.  23114.   7938.  15176.      0.    979. -99.000 -99.000 -99.000 
 2016 365 13513  15.20  27.80  20.50 -99.000   3.165   0.000   3.165   2.917   0.000   2.917   0.000   0.000  35823.  23117.   7938.  15179.      0.    979. -99.000 -99.000 -99.000 
