#############################################################################################################################################################################################
# Os resultados diários da simulação de evapotranspiração e fotossíntese no modelo DSSAT. Cada linha de dados corresponde a um dia específico e inclui as seguintes variáveis:
# ano da simulação (YEAR), dia do ano (DOY), dias após a semeadura (DAS), percentual de interceptação de luz (LI%D), fotossíntese diária (PHAD), fotossíntese acumulada (PHAN), percentual de interceptação de luz durante a noite (LI%N),  
# comprimento da folha diário (SLLN), comprimento da folha acumulado (SLHN), nitrogênio na folha diário (N%LN), nitrogênio na folha acumulado (N%HN), massa da folha diária (LMLN), massa da folha acumulada (LMHN), temperatura mínima do solo (TGON)
# e temperatura média do solo (TGAV). Esses dados são essenciais para entender o desempenho das plantas em resposta às condições ambientais e práticas de manejo ao longo do tempo.
##############################################################################################################################################################################################

*EVAPOTRANSPIRATION / PHOTOSYNTHESIS DAILY OUTPUT FILE

*DSSAT Cropping System Model Ver. 4.8.0.027 -release  FEB 01, 2024 15:59:10

*RUN   1        : MARANDU11299              PRFRM048 SPPI7902    1
 MODEL          : PRFRM048 - Brachiaria
 EXPERIMENT     : SPPI7902 BR
 DATA PATH      : C:/DSSAT48/Brachiaria/
 TREATMENT  1   : MARANDU11299              PRFRM048
  
@YEAR DOY   DAS    LI%D   PHAD   PHAN    LI%N   SLLN   SLHN   N%LN   N%HN   LMLN   LMHN   TGON   TGAV
 1980 002     1    0.00   0.00    0.00   0.00   0.00   0.00   0.00   0.00   0.00   0.00  25.62  20.50
 1980 003     2    0.00   0.00    0.00   0.00   0.00   0.00   0.00   0.00   0.00   0.00  28.57  23.06
 1980 004     3    0.00   0.00    0.00   0.00   0.00   0.00   0.00   0.00   0.00   0.00  29.39  25.03
 1980 005     4    0.00   0.00    0.00   0.00   0.00   0.00   0.00   0.00   0.00   0.00  28.25  24.31
 1980 006     5    0.00   0.00    0.00   0.00   0.00   0.00   0.00   0.00   0.00   0.00  30.09  26.26
 1980 007     6    0.00   0.00    0.00   0.00   0.00   0.00   0.00   0.00   0.00   0.00  31.19  26.82
 1980 008     7    0.00   0.00    0.00   0.00   0.00   0.00   0.00   0.00   0.00   0.00  30.08  26.49
 1980 009     8    0.00   0.00    0.00   0.00   0.00   0.00   0.00   0.00   0.00   0.00  27.69  24.14
 1980 010     9    0.00   0.00    0.00   0.00   0.00   0.00   0.00   0.00   0.00   0.00  28.43  24.45
 1980 011    10    0.00   0.00    0.00   0.00   0.00   0.00   0.00   0.00   0.00   0.00  29.59  25.26
 1980 012    11    0.00   0.00    0.00   0.00   0.00   0.00   0.00   0.00   0.00   0.00  27.96  23.80
 1980 013    12    0.00   0.00    0.00   0.00   0.00   0.00   0.00   0.00   0.00   0.00  28.98  24.89
 1980 014    13    0.00   0.00    0.00   0.00   0.00   0.00   0.00   0.00   0.00   0.00  30.10  25.55
 1980 015    14    0.00   0.00    0.00   0.00   0.00   0.00   0.00   0.00   0.00   0.00  28.40  24.39
 1980 016    15    0.00   0.00    0.00   0.00   0.00   0.00   0.00   0.00   0.00   0.00  29.38  25.58
 1980 017    16    0.00   0.00    0.00   0.00   0.00   0.00   0.00   0.00   0.00   0.00  30.65  26.53
 1980 018    17    0.00   0.00    0.00   0.00   0.00   0.00   0.00   0.00   0.00   0.00  30.80  27.07
 1980 019    18    0.00   0.00    0.00   0.00   0.00   0.00   0.00   0.00   0.00   0.00  31.15  26.78
 1980 020    19    0.00   0.00    0.00   0.00   0.00   0.00   0.00   0.00   0.00   0.00  26.99  23.51
 1980 021    20    0.00   0.00    0.00   0.00   0.00   0.00   0.00   0.00   0.00   0.00  30.95  25.79
 1980 022    21    0.00   0.00    0.00   0.00   0.00   0.00   0.00   0.00   0.00   0.00  33.64  27.94
 1980 023    22    0.00   0.00    0.00   0.00   0.00   0.00   0.00   0.00   0.00   0.00  34.60  29.87
 1980 024    23    0.00   0.00    0.00   0.00   0.00   0.00   0.00   0.00   0.00   0.00  26.80  23.64
 1980 025    24    0.00   0.00    0.00   0.00   0.00   0.00   0.00   0.00   0.00   0.00  25.87  20.82
 1980 026    25    0.00   0.00    0.00   0.00   0.00   0.00   0.00   0.00   0.00   0.00  30.30  24.57
 1980 027    26    0.00   0.00    0.00   0.00   0.00   0.00   0.00   0.00   0.00   0.00  30.69  25.71
 1980 028    27    0.00   0.00    0.00   0.00   0.00   0.00   0.00   0.00   0.00   0.00  27.30  23.93
 1980 029    28    0.00   0.00    0.00   0.00   0.00   0.00   0.00   0.00   0.00   0.00  29.49  24.55
 1980 030    29    0.00   0.00    0.00   0.00   0.00   0.00   0.00   0.00   0.00   0.00  32.77  27.79
 1980 031    30    0.00   0.00    0.00   0.00   0.00   0.00   0.00   0.00   0.00   0.00  28.60  25.77
 1980 032    31    0.00   0.00    0.00   0.00   0.00   0.00   0.00   0.00   0.00   0.00  28.46  25.02
 1980 033    32    0.00   0.00    0.00   0.00   0.00   0.00   0.00   0.00   0.00   0.00  27.52  22.97
 1980 034    33    0.00   0.00    0.00   0.00   0.00   0.00   0.00   0.00   0.00   0.00  29.21  25.42
 1980 035    34    0.00   0.00    0.00   0.00   0.00   0.00   0.00   0.00   0.00   0.00  30.58  26.21
 1980 036    35    0.00   0.00    0.00   0.00   0.00   0.00   0.00   0.00   0.00   0.00  28.41  25.65
 1980 037    36    0.00   0.00    0.00   0.00   0.00   0.00   0.00   0.00   0.00   0.00  29.67  25.80
 1980 038    37    0.00   0.00    0.00   0.00   0.00   0.00   0.00   0.00   0.00   0.00  29.79  25.50
 1980 039    38    0.00   0.00    0.00   0.00   0.00   0.00   0.00   0.00   0.00   0.00  29.47  24.64
 1980 040    39    0.00   0.00    0.00   0.00   0.00   0.00   0.00   0.00   0.00   0.00  33.61  28.13
 1980 041    40    0.00   0.00    0.00   0.00   0.00   0.00   0.00   0.00   0.00   0.00  28.43  24.79
 1980 042    41    0.00   0.00    0.00   0.00   0.00   0.00   0.00   0.00   0.00   0.00  26.24  22.63
 1980 043    42    0.00   0.00    0.00   0.00   0.00   0.00   0.00   0.00   0.00   0.00  30.77  25.52
 1980 044    43    0.00   0.00    0.00   0.00   0.00   0.00   0.00   0.00   0.00   0.00  29.85  25.77
 1980 045    44    0.00   0.00    0.00   0.00   0.00   0.00   0.00   0.00   0.00   0.00  29.98  25.76
 1980 046    45    0.00   0.00    0.00   0.00   0.00   0.00   0.00   0.00   0.00   0.00  31.39  27.21
 1980 047    46    0.00   0.00    0.00   0.00   0.00   0.00   0.00   0.00   0.00   0.00  30.25  26.71
 1980 048    47    0.00   0.00    0.00   0.00   0.00   0.00   0.00   0.00   0.00   0.00  26.51  24.12
 1980 049    48    0.00   0.00    0.00   0.00   0.00   0.00   0.00   0.00   0.00   0.00  25.46  21.75
 1980 050    49    0.00   0.00    0.00   0.00   0.00   0.00   0.00   0.00   0.00   0.00  24.71  20.89
 1980 051    50    0.00   0.00    0.00   0.00   0.00   0.00   0.00   0.00   0.00   0.00  26.46  22.28
 1980 052    51    0.00   0.00    0.00   0.00   0.00   0.00   0.00   0.00   0.00   0.00  25.94  22.44
 1980 053    52    0.00   0.00    0.00   0.00   0.00   0.00   0.00   0.00   0.00   0.00  28.96  25.07
 1980 054    53    0.00   0.00    0.00   0.00   0.00   0.00   0.00   0.00   0.00   0.00  28.45  25.03
 1980 055    54    0.00   0.00    0.00   0.00   0.00   0.00   0.00   0.00   0.00   0.00  27.65  24.48
 1980 056    55    0.00   0.00    0.00   0.00   0.00   0.00   0.00   0.00   0.00   0.00  28.25  25.08
 1980 057    56    0.00   0.00    0.00   0.00   0.00   0.00   0.00   0.00   0.00   0.00  29.09  25.56
 1980 058    57    0.00   0.00    0.00   0.00   0.00   0.00   0.00   0.00   0.00   0.00  30.76  26.23
 1980 059    58    0.00   0.00    0.00   0.00   0.00   0.00   0.00   0.00   0.00   0.00  32.45  27.92
 1980 060    59    0.00   0.00    0.00   0.00   0.00   0.00   0.00   0.00   0.00   0.00  32.30  28.59
 1980 061    60    0.00   0.00    0.00   0.00   0.00   0.00   0.00   0.00   0.00   0.00  29.94  26.13
 1980 062    61    0.00   0.00    0.00   0.00   0.00   0.00   0.00   0.00   0.00   0.00  28.91  26.42
 1980 063    62    0.00   0.00    0.00   0.00   0.00   0.00   0.00   0.00   0.00   0.00  24.06  23.07
 1980 064    63    0.00   0.00    0.00   0.00   0.00   0.00   0.00   0.00   0.00   0.00  28.35  25.50
 1980 065    64    0.00   0.00    0.00   0.00   0.00   0.00   0.00   0.00   0.00   0.00  32.82  28.34
 1980 066    65    0.00   0.00    0.00   0.00   0.00   0.00   0.00   0.00   0.00   0.00  29.65  26.17
 1980 067    66    0.00   0.00    0.00   0.00   0.00   0.00   0.00   0.00   0.00   0.00  28.42  25.33
 1980 068    67    0.00   0.00    0.00   0.00   0.00   0.00   0.00   0.00   0.00   0.00  29.52  26.01
 1980 069    68    0.00   0.00    0.00   0.00   0.00   0.00   0.00   0.00   0.00   0.00  31.01  26.82
 1980 070    69    0.00   0.00    0.00   0.00   0.00   0.00   0.00   0.00   0.00   0.00  31.87  27.61
 1980 071    70    0.00   0.00    0.00   0.00   0.00   0.00   0.00   0.00   0.00   0.00  27.15  25.05
 1980 072    71    0.00   0.00    0.00   0.00   0.00   0.00   0.00   0.00   0.00   0.00  26.36  24.51
 1980 073    72    0.00   0.00    0.00   0.00   0.00   0.00   0.00   0.00   0.00   0.00  26.81  24.01
 1980 074    73    0.00   0.00    0.00   0.00   0.00   0.00   0.00   0.00   0.00   0.00  27.20  23.51
 1980 075    74    0.00   0.00    0.00   0.00   0.00   0.00   0.00   0.00   0.00   0.00  28.18  24.46
 1980 076    75    0.00   0.00    0.00   0.00   0.00   0.00   0.00   0.00   0.00   0.00  28.40  24.75
 1980 077    76    0.00   0.00    0.00   0.00   0.00   0.00   0.00   0.00   0.00   0.00  29.31  25.70
 1980 078    77    0.00   0.00    0.00   0.00   0.00   0.00   0.00   0.00   0.00   0.00  31.77  27.88
 1980 079    78    0.00   0.00    0.00   0.00   0.00   0.00   0.00   0.00   0.00   0.00  31.38  27.95
 1980 080    79    0.00   0.00    0.00   0.00   0.00   0.00   0.00   0.00   0.00   0.00  33.07  28.58
 1980 081    80    0.00   0.00    0.00   0.00   0.00   0.00   0.00   0.00   0.00   0.00  33.33  28.98
 1980 082    81    0.00   0.00    0.00   0.00   0.00   0.00   0.00   0.00   0.00   0.00  33.61  29.65
 1980 083    82    0.00   0.00    0.00   0.00   0.00   0.00   0.00   0.00   0.00   0.00  34.38  30.18
 1980 084    83    0.00   0.00    0.00   0.00   0.00   0.00   0.00   0.00   0.00   0.00  33.99  30.04
 1980 085    84    0.00   0.00    0.00   0.00   0.00   0.00   0.00   0.00   0.00   0.00  28.88  25.95
 1980 086    85    0.00   0.00    0.00   0.00   0.00   0.00   0.00   0.00   0.00   0.00  25.82  23.81
 1980 087    86    0.00   0.00    0.00   0.00   0.00   0.00   0.00   0.00   0.00   0.00  27.53  25.35
 1980 088    87    0.00   0.00    0.00   0.00   0.00   0.00   0.00   0.00   0.00   0.00  26.38  24.52
 1980 089    88    0.00   0.00    0.00   0.00   0.00   0.00   0.00   0.00   0.00   0.00  26.48  24.02
 1980 090    89    0.00   0.00    0.00   0.00   0.00   0.00   0.00   0.00   0.00   0.00  23.58  20.53
 1980 091    90    0.00   0.00    0.00   0.00   0.00   0.00   0.00   0.00   0.00   0.00  24.04  20.54
 1980 092    91    0.00   0.00    0.00   0.00   0.00   0.00   0.00   0.00   0.00   0.00  25.81  22.06
 1980 093    92    0.00   0.00    0.00   0.00   0.00   0.00   0.00   0.00   0.00   0.00  26.30  22.56
 1980 094    93    0.00   0.00    0.00   0.00   0.00   0.00   0.00   0.00   0.00   0.00  27.25  23.23
 1980 095    94    0.00   0.00    0.00   0.00   0.00   0.00   0.00   0.00   0.00   0.00  29.04  25.03
 1980 096    95    0.00   0.00    0.00   0.00   0.00   0.00   0.00   0.00   0.00   0.00  27.95  24.36
 1980 097    96    0.00   0.00    0.00   0.00   0.00   0.00   0.00   0.00   0.00   0.00  27.59  23.89
 1980 098    97    0.00   0.00    0.00   0.00   0.00   0.00   0.00   0.00   0.00   0.00  25.29  22.41
 1980 099    98    0.00   0.00    0.00   0.00   0.00   0.00   0.00   0.00   0.00   0.00  25.59  23.09
 1980 100    99    0.00   0.00    0.00   0.00   0.00   0.00   0.00   0.00   0.00   0.00  28.86  25.18
 1980 101   100    0.00   0.00    0.00   0.00   0.00   0.00   0.00   0.00   0.00   0.00  29.20  26.18
 1980 102   101    0.00   0.00    0.00   0.00   0.00   0.00   0.00   0.00   0.00   0.00  29.17  24.97
 1980 103   102    0.00   0.00    0.00   0.00   0.00   0.00   0.00   0.00   0.00   0.00  23.55  21.02
 1980 104   103    0.00   0.00    0.00   0.00   0.00   0.00   0.00   0.00   0.00   0.00  19.03  16.85
 1980 105   104    0.00   0.00    0.00   0.00   0.00   0.00   0.00   0.00   0.00   0.00  16.26  14.15
 1980 106   105    0.00   0.00    0.00   0.00   0.00   0.00   0.00   0.00   0.00   0.00  17.78  13.88
 1980 107   106    0.00   0.00    0.00   0.00   0.00   0.00   0.00   0.00   0.00   0.00  19.62  14.89
 1980 108   107    0.00   0.00    0.00   0.00   0.00   0.00   0.00   0.00   0.00   0.00  21.90  17.91
 1980 109   108    0.00   0.00    0.00   0.00   0.00   0.00   0.00   0.00   0.00   0.00  24.74  22.09
 1980 110   109    0.00   0.00    0.00   0.00   0.00   0.00   0.00   0.00   0.00   0.00  24.58  23.10
 1980 111   110    0.00   0.00    0.00   0.00   0.00   0.00   0.00   0.00   0.00   0.00  27.77  25.02
 1980 112   111    0.00   0.00    0.00   0.00   0.00   0.00   0.00   0.00   0.00   0.00  29.94  26.10
 1980 113   112    0.00   0.00    0.00   0.00   0.00   0.00   0.00   0.00   0.00   0.00  29.13  25.47
 1980 114   113    0.00   0.00    0.00   0.00   0.00   0.00   0.00   0.00   0.00   0.00  30.13  26.12
 1980 115   114    0.00   0.00    0.00   0.00   0.00   0.00   0.00   0.00   0.00   0.00  29.83  26.21
 1980 116   115    0.00   0.00    0.00   0.00   0.00   0.00   0.00   0.00   0.00   0.00  28.64  25.56
 1980 117   116    0.00   0.00    0.00   0.00   0.00   0.00   0.00   0.00   0.00   0.00  26.39  23.08
 1980 118   117    0.00   0.00    0.00   0.00   0.00   0.00   0.00   0.00   0.00   0.00  28.23  24.31
 1980 119   118    0.00   0.00    0.00   0.00   0.00   0.00   0.00   0.00   0.00   0.00  28.46  24.45
 1980 120   119    0.00   0.00    0.00   0.00   0.00   0.00   0.00   0.00   0.00   0.00  28.33  24.29
 1980 121   120    0.00   0.00    0.00   0.00   0.00   0.00   0.00   0.00   0.00   0.00  23.04  20.22
 1980 122   121    0.00   0.00    0.00   0.00   0.00   0.00   0.00   0.00   0.00   0.00  17.22  15.22
 1980 123   122    0.00   0.00    0.00   0.00   0.00   0.00   0.00   0.00   0.00   0.00  16.35  13.74
 1980 124   123    0.00   0.00    0.00   0.00   0.00   0.00   0.00   0.00   0.00   0.00  15.64  13.21
 1980 125   124    0.00   0.00    0.00   0.00   0.00   0.00   0.00   0.00   0.00   0.00  17.45  13.87
 1980 126   125    0.00   0.00    0.00   0.00   0.00   0.00   0.00   0.00   0.00   0.00  18.79  14.81
 1980 127   126    0.00   0.00    0.00   0.00   0.00   0.00   0.00   0.00   0.00   0.00  20.71  16.93
 1980 128   127    0.00   0.00    0.00   0.00   0.00   0.00   0.00   0.00   0.00   0.00  18.48  15.82
 1980 129   128    0.00   0.00    0.00   0.00   0.00   0.00   0.00   0.00   0.00   0.00  20.03  17.31
 1980 130   129    0.00   0.00    0.00   0.00   0.00   0.00   0.00   0.00   0.00   0.00  21.33  19.75
 1980 131   130    0.00   0.00    0.00   0.00   0.00   0.00   0.00   0.00   0.00   0.00  23.66  21.01
 1980 132   131    0.00   0.00    0.00   0.00   0.00   0.00   0.00   0.00   0.00   0.00  25.98  21.92
 1980 133   132    0.00   0.00    0.00   0.00   0.00   0.00   0.00   0.00   0.00   0.00  26.71  22.73
 1980 134   133    0.00   0.00    0.00   0.00   0.00   0.00   0.00   0.00   0.00   0.00  27.47  23.76
 1980 135   134    0.00   0.00    0.00   0.00   0.00   0.00   0.00   0.00   0.00   0.00  27.68  23.84
 1980 136   135    0.00   0.00    0.00   0.00   0.00   0.00   0.00   0.00   0.00   0.00  26.65  23.88
 1980 137   136    0.00   0.00    0.00   0.00   0.00   0.00   0.00   0.00   0.00   0.00  21.36  19.73
 1980 138   137    0.00   0.00    0.00   0.00   0.00   0.00   0.00   0.00   0.00   0.00  20.63  18.33
 1980 139   138    0.00   0.00    0.00   0.00   0.00   0.00   0.00   0.00   0.00   0.00  23.04  20.90
 1980 140   139    0.00   0.00    0.00   0.00   0.00   0.00   0.00   0.00   0.00   0.00  23.85  21.58
 1980 141   140    0.00   0.00    0.00   0.00   0.00   0.00   0.00   0.00   0.00   0.00  24.43  21.37
 1980 142   141    0.00   0.00    0.00   0.00   0.00   0.00   0.00   0.00   0.00   0.00  22.25  21.26
 1980 143   142    0.00   0.00    0.00   0.00   0.00   0.00   0.00   0.00   0.00   0.00  19.36  17.60
 1980 144   143    0.00   0.00    0.00   0.00   0.00   0.00   0.00   0.00   0.00   0.00  21.50  17.82
 1980 145   144    0.00   0.00    0.00   0.00   0.00   0.00   0.00   0.00   0.00   0.00  21.70  18.19
 1980 146   145    0.00   0.00    0.00   0.00   0.00   0.00   0.00   0.00   0.00   0.00  20.14  17.46
 1980 147   146    0.00   0.00    0.00   0.00   0.00   0.00   0.00   0.00   0.00   0.00  22.91  19.44
 1980 148   147    0.00   0.00    0.00   0.00   0.00   0.00   0.00   0.00   0.00   0.00  24.17  19.75
 1980 149   148    0.00   0.00    0.00   0.00   0.00   0.00   0.00   0.00   0.00   0.00  24.99  22.12
 1980 150   149    0.00   0.00    0.00   0.00   0.00   0.00   0.00   0.00   0.00   0.00  21.32  18.65
 1980 151   150    0.00   0.00    0.00   0.00   0.00   0.00   0.00   0.00   0.00   0.00  24.45  21.98
 1980 152   151    0.00   0.00    0.00   0.00   0.00   0.00   0.00   0.00   0.00   0.00  23.73  21.99
 1980 153   152    0.00   0.00    0.00   0.00   0.00   0.00   0.00   0.00   0.00   0.00  19.92  17.13
 1980 154   153    0.00   0.00    0.00   0.00   0.00   0.00   0.00   0.00   0.00   0.00  13.20  10.67
 1980 155   154    0.00   0.00    0.00   0.00   0.00   0.00   0.00   0.00   0.00   0.00  15.11  12.03
 1980 156   155    0.00   0.00    0.00   0.00   0.00   0.00   0.00   0.00   0.00   0.00  18.77  15.03
 1980 157   156    0.00   0.00    0.00   0.00   0.00   0.00   0.00   0.00   0.00   0.00  20.54  16.48
 1980 158   157    0.00   0.00    0.00   0.00   0.00   0.00   0.00   0.00   0.00   0.00  20.91  15.93
 1980 159   158    0.00   0.00    0.00   0.00   0.00   0.00   0.00   0.00   0.00   0.00  23.41  19.32
 1980 160   159    0.00   0.00    0.00   0.00   0.00   0.00   0.00   0.00   0.00   0.00  23.54  19.65
 1980 161   160    0.00   0.00    0.00   0.00   0.00   0.00   0.00   0.00   0.00   0.00  25.69  22.03
 1980 162   161    0.00   0.00    0.00   0.00   0.00   0.00   0.00   0.00   0.00   0.00  24.16  21.19
 1980 163   162    0.00   0.00    0.00   0.00   0.00   0.00   0.00   0.00   0.00   0.00  22.54  20.42
 1980 164   163    0.00   0.00    0.00   0.00   0.00   0.00   0.00   0.00   0.00   0.00  20.43  19.03
 1980 165   164    0.00   0.00    0.00   0.00   0.00   0.00   0.00   0.00   0.00   0.00  17.17  14.95
 1980 166   165    0.00   0.00    0.00   0.00   0.00   0.00   0.00   0.00   0.00   0.00  15.08  12.44
 1980 167   166    0.00   0.00    0.00   0.00   0.00   0.00   0.00   0.00   0.00   0.00  15.48  11.53
 1980 168   167    0.00   0.00    0.00   0.00   0.00   0.00   0.00   0.00   0.00   0.00  19.06  14.07
 1980 169   168    0.00   0.00    0.00   0.00   0.00   0.00   0.00   0.00   0.00   0.00  22.90  18.57
 1980 170   169    0.00   0.00    0.00   0.00   0.00   0.00   0.00   0.00   0.00   0.00  22.06  18.67
 1980 171   170    0.00   0.00    0.00   0.00   0.00   0.00   0.00   0.00   0.00   0.00  18.73  15.73
 1980 172   171    0.00   0.00    0.00   0.00   0.00   0.00   0.00   0.00   0.00   0.00  15.70  14.39
 1980 173   172    0.00   0.00    0.00   0.00   0.00   0.00   0.00   0.00   0.00   0.00  16.70  14.39
 1980 174   173    0.00   0.00    0.00   0.00   0.00   0.00   0.00   0.00   0.00   0.00  18.16  15.06
 1980 175   174    0.00   0.00    0.00   0.00   0.00   0.00   0.00   0.00   0.00   0.00  18.74  14.90
 1980 176   175    0.00   0.00    0.00   0.00   0.00   0.00   0.00   0.00   0.00   0.00  16.38  14.03
 1980 177   176    0.00   0.00    0.00   0.00   0.00   0.00   0.00   0.00   0.00   0.00  14.16  12.07
 1980 178   177    0.00   0.00    0.00   0.00   0.00   0.00   0.00   0.00   0.00   0.00  14.84  12.01
 1980 179   178    0.00   0.00    0.00   0.00   0.00   0.00   0.00   0.00   0.00   0.00  17.20  13.58
 1980 180   179    0.00   0.00    0.00   0.00   0.00   0.00   0.00   0.00   0.00   0.00  18.43  13.53
 1980 181   180    0.00   0.00    0.00   0.00   0.00   0.00   0.00   0.00   0.00   0.00  21.06  16.78
 1980 182   181    0.00   0.00    0.00   0.00   0.00   0.00   0.00   0.00   0.00   0.00  22.53  18.64
 1980 183   182    0.00   0.00    0.00   0.00   0.00   0.00   0.00   0.00   0.00   0.00  12.96  10.58
 1980 184   183    0.00   0.00    0.00   0.00   0.00   0.00   0.00   0.00   0.00   0.00  13.85  12.31
 1980 185   184    0.00   0.00    0.00   0.00   0.00   0.00   0.00   0.00   0.00   0.00  13.66  12.58
 1980 186   185    0.00   0.00    0.00   0.00   0.00   0.00   0.00   0.00   0.00   0.00  16.91  13.71
 1980 187   186    0.00   0.00    0.00   0.00   0.00   0.00   0.00   0.00   0.00   0.00  18.67  15.40
 1980 188   187    0.00   0.00    0.00   0.00   0.00   0.00   0.00   0.00   0.00   0.00  22.00  18.16
 1980 189   188    0.00   0.00    0.00   0.00   0.00   0.00   0.00   0.00   0.00   0.00  20.22  17.60
 1980 190   189    0.00   0.00    0.00   0.00   0.00   0.00   0.00   0.00   0.00   0.00  19.46  17.03
 1980 191   190    0.00   0.00    0.00   0.00   0.00   0.00   0.00   0.00   0.00   0.00  16.14  13.38
 1980 192   191    0.00   0.00    0.00   0.00   0.00   0.00   0.00   0.00   0.00   0.00  14.86  13.02
 1980 193   192    0.00   0.00    0.00   0.00   0.00   0.00   0.00   0.00   0.00   0.00  18.66  14.88
 1980 194   193    0.00   0.00    0.00   0.00   0.00   0.00   0.00   0.00   0.00   0.00  18.49  16.38
 1980 195   194    0.00   0.00    0.00   0.00   0.00   0.00   0.00   0.00   0.00   0.00  19.82  17.45
 1980 196   195    0.00   0.00    0.00   0.00   0.00   0.00   0.00   0.00   0.00   0.00  17.05  12.76
 1980 197   196    0.00   0.00    0.00   0.00   0.00   0.00   0.00   0.00   0.00   0.00  13.31   9.54
 1980 198   197    0.00   0.00    0.00   0.00   0.00   0.00   0.00   0.00   0.00   0.00  20.90  16.50
 1980 199   198    0.00   0.00    0.00   0.00   0.00   0.00   0.00   0.00   0.00   0.00  20.76  15.83
 1980 200   199    0.00   0.00    0.00   0.00   0.00   0.00   0.00   0.00   0.00   0.00  20.17  16.46
 1980 201   200    0.00   0.00    0.00   0.00   0.00   0.00   0.00   0.00   0.00   0.00  24.31  20.03
 1980 202   201    0.00   0.00    0.00   0.00   0.00   0.00   0.00   0.00   0.00   0.00  21.76  18.31
 1980 203   202    0.00   0.00    0.00   0.00   0.00   0.00   0.00   0.00   0.00   0.00  16.70  14.08
 1980 204   203    0.00   0.00    0.00   0.00   0.00   0.00   0.00   0.00   0.00   0.00  17.73  13.45
 1980 205   204    0.00   0.00    0.00   0.00   0.00   0.00   0.00   0.00   0.00   0.00  18.04  14.22
 1980 206   205    0.00   0.00    0.00   0.00   0.00   0.00   0.00   0.00   0.00   0.00  19.96  15.54
 1980 207   206    0.00   0.00    0.00   0.00   0.00   0.00   0.00   0.00   0.00   0.00  22.07  17.64
 1980 208   207    0.00   0.00    0.00   0.00   0.00   0.00   0.00   0.00   0.00   0.00  22.80  19.33
 1980 209   208    0.00   0.00    0.00   0.00   0.00   0.00   0.00   0.00   0.00   0.00  16.84  13.90
 1980 210   209    0.00   0.00    0.00   0.00   0.00   0.00   0.00   0.00   0.00   0.00  16.46  13.39
 1980 211   210    0.00   0.00    0.00   0.00   0.00   0.00   0.00   0.00   0.00   0.00  15.14  12.96
 1980 212   211    0.00   0.00    0.00   0.00   0.00   0.00   0.00   0.00   0.00   0.00  14.57  11.96
 1980 213   212    0.00   0.00    0.00   0.00   0.00   0.00   0.00   0.00   0.00   0.00  16.32  12.16
 1980 214   213    0.00   0.00    0.00   0.00   0.00   0.00   0.00   0.00   0.00   0.00  17.94  13.47
 1980 215   214    0.00   0.00    0.00   0.00   0.00   0.00   0.00   0.00   0.00   0.00  19.91  15.54
 1980 216   215    0.00   0.00    0.00   0.00   0.00   0.00   0.00   0.00   0.00   0.00  21.63  17.59
 1980 217   216    0.00   0.00    0.00   0.00   0.00   0.00   0.00   0.00   0.00   0.00  22.58  18.94
 1980 218   217    0.00   0.00    0.00   0.00   0.00   0.00   0.00   0.00   0.00   0.00  19.74  18.32
 1980 219   218    0.00   0.00    0.00   0.00   0.00   0.00   0.00   0.00   0.00   0.00  16.96  15.41
 1980 220   219    0.00   0.00    0.00   0.00   0.00   0.00   0.00   0.00   0.00   0.00  20.25  17.18
 1980 221   220    0.00   0.00    0.00   0.00   0.00   0.00   0.00   0.00   0.00   0.00  19.55  15.46
 1980 222   221    0.00   0.00    0.00   0.00   0.00   0.00   0.00   0.00   0.00   0.00  19.56  14.95
 1980 223   222    0.00   0.00    0.00   0.00   0.00   0.00   0.00   0.00   0.00   0.00  22.79  18.55
 1980 224   223    0.00   0.00    0.00   0.00   0.00   0.00   0.00   0.00   0.00   0.00  16.74  14.26
 1980 225   224    0.00   0.00    0.00   0.00   0.00   0.00   0.00   0.00   0.00   0.00  15.33  11.12
 1980 226   225    0.00   0.00    0.00   0.00   0.00   0.00   0.00   0.00   0.00   0.00  20.08  15.08
 1980 227   226    0.00   0.00    0.00   0.00   0.00   0.00   0.00   0.00   0.00   0.00  19.45  15.23
 1980 228   227    0.00   0.00    0.00   0.00   0.00   0.00   0.00   0.00   0.00   0.00  24.08  20.06
 1980 229   228    0.00   0.00    0.00   0.00   0.00   0.00   0.00   0.00   0.00   0.00  26.17  21.94
 1980 230   229    0.00   0.00    0.00   0.00   0.00   0.00   0.00   0.00   0.00   0.00  21.28  18.44
 1980 231   230    0.00   0.00    0.00   0.00   0.00   0.00   0.00   0.00   0.00   0.00  19.36  15.77
 1980 232   231    0.00   0.00    0.00   0.00   0.00   0.00   0.00   0.00   0.00   0.00  21.17  19.36
 1980 233   232    0.00   0.00    0.00   0.00   0.00   0.00   0.00   0.00   0.00   0.00  17.07  14.70
 1980 234   233    0.00   0.00    0.00   0.00   0.00   0.00   0.00   0.00   0.00   0.00  19.00  17.39
 1980 235   234    0.00   0.00    0.00   0.00   0.00   0.00   0.00   0.00   0.00   0.00  15.94  13.67
 1980 236   235    0.00   0.00    0.00   0.00   0.00   0.00   0.00   0.00   0.00   0.00  16.08  12.60
 1980 237   236    0.00   0.00    0.00   0.00   0.00   0.00   0.00   0.00   0.00   0.00  16.87  12.08
 1980 238   237    0.00   0.00    0.00   0.00   0.00   0.00   0.00   0.00   0.00   0.00  18.22  14.05
 1980 239   238    0.00   0.00    0.00   0.00   0.00   0.00   0.00   0.00   0.00   0.00  13.32  10.59
 1980 240   239    0.00   0.00    0.00   0.00   0.00   0.00   0.00   0.00   0.00   0.00  14.39  11.59
 1980 241   240    0.00   0.00    0.00   0.00   0.00   0.00   0.00   0.00   0.00   0.00  16.95  12.21
 1980 242   241    0.00   0.00    0.00   0.00   0.00   0.00   0.00   0.00   0.00   0.00  22.73  17.36
 1980 243   242    0.00   0.00    0.00   0.00   0.00   0.00   0.00   0.00   0.00   0.00  22.80  18.68
 1980 244   243    0.00   0.00    0.00   0.00   0.00   0.00   0.00   0.00   0.00   0.00  22.16  19.63
 1980 245   244    0.00   0.00    0.00   0.00   0.00   0.00   0.00   0.00   0.00   0.00  21.48  19.53
 1980 246   245    0.00   0.00    0.00   0.00   0.00   0.00   0.00   0.00   0.00   0.00  19.03  15.66
 1980 247   246    0.00   0.00    0.00   0.00   0.00   0.00   0.00   0.00   0.00   0.00  21.50  18.06
 1980 248   247    0.00   0.00    0.00   0.00   0.00   0.00   0.00   0.00   0.00   0.00  15.18  10.89
 1980 249   248    0.00   0.00    0.00   0.00   0.00   0.00   0.00   0.00   0.00   0.00  17.07  11.77
 1980 250   249    0.00   0.00    0.00   0.00   0.00   0.00   0.00   0.00   0.00   0.00  21.10  15.45
 1980 251   250    0.00   0.00    0.00   0.00   0.00   0.00   0.00   0.00   0.00   0.00  25.39  19.10
 1980 252   251    0.00   0.00    0.00   0.00   0.00   0.00   0.00   0.00   0.00   0.00  18.31  16.35
 1980 253   252    0.00   0.00    0.00   0.00   0.00   0.00   0.00   0.00   0.00   0.00  18.52  14.60
 1980 254   253    0.00   0.00    0.00   0.00   0.00   0.00   0.00   0.00   0.00   0.00  17.76  12.89
 1980 255   254    0.00   0.00    0.00   0.00   0.00   0.00   0.00   0.00   0.00   0.00  21.22  15.86
 1980 256   255    0.00   0.00    0.00   0.00   0.00   0.00   0.00   0.00   0.00   0.00  22.48  17.81
 1980 257   256    0.00   0.00    0.00   0.00   0.00   0.00   0.00   0.00   0.00   0.00  27.07  22.37
 1980 258   257    0.00   0.00    0.00   0.00   0.00   0.00   0.00   0.00   0.00   0.00  26.04  22.88
 1980 259   258    0.00   0.00    0.00   0.00   0.00   0.00   0.00   0.00   0.00   0.00  16.12  13.31
 1980 260   259    0.00   0.00    0.00   0.00   0.00   0.00   0.00   0.00   0.00   0.00  13.45  11.09
 1980 261   260    0.00   0.00    0.00   0.00   0.00   0.00   0.00   0.00   0.00   0.00  15.45  10.80
 1980 262   261    0.00   0.00    0.00   0.00   0.00   0.00   0.00   0.00   0.00   0.00  18.73  14.42
 1980 263   262    0.00   0.00    0.00   0.00   0.00   0.00   0.00   0.00   0.00   0.00  20.97  16.95
 1980 264   263    0.00   0.00    0.00   0.00   0.00   0.00   0.00   0.00   0.00   0.00  22.01  17.84
 1980 265   264    0.00   0.00    0.00   0.00   0.00   0.00   0.00   0.00   0.00   0.00  18.82  15.29
 1980 266   265    0.00   0.00    0.00   0.00   0.00   0.00   0.00   0.00   0.00   0.00  16.36  12.26
 1980 267   266    0.00   0.00    0.00   0.00   0.00   0.00   0.00   0.00   0.00   0.00  18.84  13.18
 1980 268   267    0.00   0.00    0.00   0.00   0.00   0.00   0.00   0.00   0.00   0.00  19.37  14.16
 1980 269   268    0.00   0.00    0.00   0.00   0.00   0.00   0.00   0.00   0.00   0.00  17.16  12.98
 1980 270   269    0.00   0.00    0.00   0.00   0.00   0.00   0.00   0.00   0.00   0.00  20.72  16.01
 1980 271   270    0.00   0.00    0.00   0.00   0.00   0.00   0.00   0.00   0.00   0.00  18.34  15.40
 1980 272   271    0.00   0.00    0.00   0.00   0.00   0.00   0.00   0.00   0.00   0.00  15.85  14.22
 1980 273   272    0.00   0.00    0.00   0.00   0.00   0.00   0.00   0.00   0.00   0.00  20.68  16.92
 1980 274   273    0.00   0.00    0.00   0.00   0.00   0.00   0.00   0.00   0.00   0.00  28.07  22.50
 1980 275   274    0.00   0.00    0.00   0.00   0.00   0.00   0.00   0.00   0.00   0.00  28.11  23.50
 1980 276   275    0.00   0.00    0.00   0.00   0.00   0.00   0.00   0.00   0.00   0.00  25.53  22.94
 1980 277   276    0.00   0.00    0.00   0.00   0.00   0.00   0.00   0.00   0.00   0.00  22.05  20.38
 1980 278   277    0.00   0.00    0.00   0.00   0.00   0.00   0.00   0.00   0.00   0.00  17.54  14.95
 1980 279   278    0.00   0.00    0.00   0.00   0.00   0.00   0.00   0.00   0.00   0.00  16.10  13.19
 1980 280   279    0.00   0.00    0.00   0.00   0.00   0.00   0.00   0.00   0.00   0.00  15.27  12.03
 1980 281   280    0.00   0.00    0.00   0.00   0.00   0.00   0.00   0.00   0.00   0.00  19.44  14.99
 1980 282   281    0.00   0.00    0.00   0.00   0.00   0.00   0.00   0.00   0.00   0.00  17.18  15.55
 1980 283   282    0.00   0.00    0.00   0.00   0.00   0.00   0.00   0.00   0.00   0.00  20.70  17.50
 1980 284   283    0.00   0.00    0.00   0.00   0.00   0.00   0.00   0.00   0.00   0.00  20.98  18.16
 1980 285   284    0.00   0.00    0.00   0.00   0.00   0.00   0.00   0.00   0.00   0.00  19.64  17.90
 1980 286   285    0.00   0.00    0.00   0.00   0.00   0.00   0.00   0.00   0.00   0.00  21.28  18.68
 1980 287   286    0.00   0.00    0.00   0.00   0.00   0.00   0.00   0.00   0.00   0.00  22.25  18.86
 1980 288   287    0.00   0.00    0.00   0.00   0.00   0.00   0.00   0.00   0.00   0.00  24.90  20.69
 1980 289   288   43.86  20.43    0.95  45.68   6.50   6.35   4.43   4.28   1.08   1.05  24.89  20.65
 1980 290   289   69.82  29.40    1.32  67.35   6.45   6.29   4.27   4.11   1.23   1.20  26.46  22.10
 1980 291   290   72.20  31.83    1.49  70.89   6.43   6.27   4.20   4.03   1.50   1.46  29.66  24.59
 1980 292   291   75.49  20.94    1.03  75.49   6.35   6.18   4.10   3.92   1.30   1.27  26.06  22.89
 1980 293   292   77.04  24.86    1.19  77.07   6.20   6.01   4.01   3.83   1.14   1.10  24.32  21.50
 1980 294   293   78.52  21.13    1.02  78.52   6.12   5.92   3.96   3.76   1.06   1.02  22.84  21.02
 1980 295   294   79.80  25.96    1.24  79.81   6.02   5.82   3.90   3.69   1.11   1.07  23.63  21.77
 1980 296   295   81.01  24.38    1.12  80.92   5.95   5.73   3.85   3.64   0.74   0.70  21.27  18.05
 1980 297   296   81.17  21.69    0.92  80.11   5.97   5.74   3.83   3.61   0.50   0.48  19.06  15.81
 1980 298   297   81.36  15.01    0.63  79.38   6.04   5.81   3.83   3.60   0.31   0.30  18.03  14.21
 1980 299   298   82.04  32.70    1.47  80.88   6.10   5.87   3.82   3.59   0.98   0.93  24.59  20.41
 1980 300   299   83.88  33.78    1.62  83.77   6.12   5.88   3.80   3.56   1.44   1.36  28.68  24.97
 1980 301   300   85.37  24.69    1.20  85.37   6.03   5.78   3.73   3.47   1.19   1.11  24.53  22.89
 1980 302   301   85.75  39.72    1.82  84.89   5.92   5.66   3.68   3.41   1.31   1.22  27.78  24.03
 1980 303   302   87.12  37.19    1.73  86.73   5.90   5.63   3.65   3.37   1.19   1.11  26.16  22.83
 1980 304   303   88.00  34.12    1.52  87.40   5.88   5.59   3.62   3.33   0.84   0.77  21.75  19.14
 1980 305   304   88.44  26.45    1.12  86.62   5.92   5.62   3.62   3.31   0.54   0.50  19.51  16.29
 1980 306   305   88.84  24.34    1.06  87.03   6.00   5.70   3.62   3.32   0.49   0.45  21.82  16.84
 1980 307   306   89.18  35.80    1.58  87.46   6.07   5.76   3.62   3.30   0.88   0.81  25.27  20.15
 1980 308   307   89.78  44.02    1.98  88.19   6.12   5.80   3.60   3.29   1.25   1.14  28.99  23.40
 1980 309   308   90.54  46.44    2.07  89.11   6.14   5.81   3.59   3.25   1.32   1.20  27.59  23.76
 1980 310   309   91.67  36.50    1.74  91.67   6.15   5.80   3.57   3.22   1.35   1.22  27.60  24.06
 1980 311   310   92.33  27.19    1.29  92.33   6.08   5.72   3.52   3.16   0.97   0.87  21.78  20.46
 1980 312   311   92.65  40.93    1.88  92.37   6.04   5.67   3.51   3.14   1.10   0.98  25.24  21.77
 1980 313   312   93.21  37.74    1.74  93.09   6.05   5.66   3.52   3.14   0.96   0.86  23.62  20.32
 1980 314   313   93.68  35.04    1.60  93.63   6.05   5.66   3.52   3.13   0.84   0.74  20.85  18.91
 1980 315   314   94.05  30.82    1.40  94.03   6.07   5.66   3.53   3.12   0.65   0.57  19.90  17.07
 1980 316   315   94.25  36.59    1.58  93.69   6.10   5.69   3.54   3.13   0.71   0.62  21.43  17.88
 1980 317   316   94.61  37.50    1.62  93.76   6.16   5.74   3.55   3.13   0.75   0.66  22.45  18.44
 1980 318   317   94.95  39.56    1.73  94.01   6.21   5.78   3.55   3.12   0.83   0.73  23.38  19.15
 1980 319   318   95.22  48.96    2.20  94.34   6.26   5.82   3.55   3.11   1.24   1.08  28.51  23.07
 1980 320   319   95.53  52.92    2.38  94.81   6.28   5.83   3.54   3.08   1.45   1.26  29.43  24.81
 1980 321   320   95.72  47.33    2.20  95.57   6.28   5.81   3.52   3.05   1.44   1.24  28.36  24.85
 1980 322   321   96.23  40.82    1.77  95.68   6.24   5.75   3.49   3.00   0.81   0.69  22.89  18.91
 1980 323   322   96.21  44.69    2.07  96.11   6.29   5.79   3.51   3.02   1.21   1.03  26.17  22.41
 1980 324   323   96.47  46.55    2.14  96.36   6.27   5.76   3.49   2.98   1.25   1.06  26.02  22.90
 1980 325   324   96.65  40.30    1.90  96.64   6.26   5.73   3.48   2.96   1.33   1.12  27.20  23.76
 1980 326   325   96.83  37.39    1.75  96.83   6.21   5.67   3.45   2.91   1.15   0.95  24.54  22.00
 1980 327   326   96.99  32.98    1.56  96.99   6.18   5.63   3.44   2.89   1.29   1.06  26.03  24.23
 1980 328   327   97.33  47.32    2.10  97.17   6.11   5.54   3.39   2.82   1.06   0.87  23.73  21.40
 1980 329   328   97.83  41.53    1.83  97.38   6.14   5.56   3.44   2.86   0.81   0.66  24.62  19.60
 1980 330   329   97.89  45.00    1.95  97.50   6.18   5.59   3.43   2.85   0.90   0.73  23.58  19.78
 1980 331   330   97.62  40.25    1.78  97.52   6.22   5.63   3.44   2.85   0.73   0.60  23.44  18.70
 1980 332   331   97.92  52.39    2.32  97.70   6.25   5.65   3.45   2.84   1.26   1.02  27.63  23.15
 1980 333   332   97.65  31.90    1.50  97.65   6.26   5.64   3.44   2.82   1.15   0.93  24.02  22.19
 1980 334   333   97.80  44.32    2.03  97.78   6.21   5.58   3.39   2.75   1.20   0.95  25.15  22.86
 1980 335   334   98.00  49.76    2.26  97.95   6.19   5.54   3.32   2.67   1.34   1.04  27.38  24.62
 1980 336   335   98.03  45.47    2.09  98.01   6.18   5.51   3.26   2.59   1.28   0.97  26.91  23.98
 1980 337   336   98.06  37.47    1.74  98.06   6.16   5.48   3.19   2.51   1.24   0.92  26.11  23.96
 1980 338   337   98.12  37.14    1.72  98.12   6.12   5.43   3.16   2.47   1.12   0.82  24.44  22.65
 1980 339   338   98.42  48.49    2.15  98.37   6.09   5.39   3.14   2.43   1.11   0.80  24.63  22.56
 1980 340   339   98.62  49.27    2.15  98.55   6.10   5.38   3.07   2.35   1.09   0.77  25.23  22.33
 1980 341   340   98.90  51.80    2.27  98.77   6.12   5.39   3.03   2.30   1.21   0.84  27.93  23.67
 1980 342   341   98.88  51.31    2.25  98.78   6.15   5.41   2.97   2.23   1.21   0.82  28.12  23.83
 1980 343   342   99.07  54.47    2.41  98.91   6.17   5.42   2.92   2.17   1.34   0.89  30.18  25.49
 1980 344   343   99.06  55.76    2.47  98.93   6.20   5.44   2.85   2.09   1.47   0.95  32.14  27.34
 1980 345   344   98.97  54.22    2.40  98.90   6.22   5.45   2.79   2.02   1.46   0.92  32.17  27.74
 1980 346   345   98.53  42.84    1.98  98.52   6.24   5.46   2.74   1.97   1.37   0.84  30.77  26.58
 1980 347   346   99.09  49.12    2.12  99.02   6.22   5.43   2.70   1.91   1.14   0.68  26.85  23.99
 1980 348   347   99.07  49.45    2.15  99.02   6.24   5.44   2.70   1.90   1.18   0.70  27.83  24.36
 1980 349   348   99.18  48.03    2.09  99.11   6.26   5.45   2.67   1.86   1.11   0.64  27.31  23.52
 1980 350   349   99.15  48.11    2.10  99.10   6.28   5.46   2.62   1.80   1.15   0.65  28.07  24.17
 1980 351   350   99.28  47.22    2.05  99.20   6.30   5.47   2.60   1.78   1.08   0.60  27.05  23.37
 1980 352   351   98.65  36.23    1.66  98.64   6.32   5.49   2.57   1.73   1.03   0.56  26.25  22.81
 1980 353   352   98.66  33.17    1.52  98.65   6.32   5.48   2.53   1.69   0.98   0.52  24.47  22.76
 1980 354   353   98.77  36.94    1.65  98.77   6.31   5.46   2.52   1.67   0.83   0.43  23.07  20.53
 1980 355   354   98.95  38.29    1.66  98.96   6.32   5.46   2.49   1.63   0.78   0.39  22.88  20.09
 1980 356   355   99.24  37.08    1.56  99.22   6.33   5.47   2.46   1.60   0.72   0.35  22.65  19.50
 1980 357   356   99.34  37.77    1.61  99.29   6.35   5.49   2.43   1.57   0.76   0.37  23.63  20.16
 1980 358   357   99.14  40.38    1.75  99.14   6.38   5.51   2.40   1.54   0.90   0.42  25.49  21.91
 1980 359   358   99.32  41.56    1.79  99.28   6.40   5.53   2.37   1.50   0.95   0.44  26.59  22.72
 1980 360   359   99.37  42.99    1.86  99.32   6.43   5.56   2.33   1.47   1.03   0.45  27.47  23.82
 1980 361   360   99.05  40.58    1.80  99.05   6.45   5.58   2.30   1.43   1.05   0.45  27.89  24.31
 1980 362   361   98.75  29.71    1.37  98.74   6.47   5.60   2.28   1.41   0.97   0.41  26.21  23.49
 1980 363   362   98.84  35.03    1.59  98.84   6.47   5.59   2.26   1.38   1.00   0.41  26.95  24.09
 1980 364   363   99.13  41.01    1.81  99.14   6.46   5.59   2.25   1.37   1.09   0.43  28.56  25.74
 1980 365   364   99.34  42.54    1.85  99.32   6.47   5.59   2.25   1.37   1.08   0.43  28.51  25.54
 1980 366   365   99.25  41.50    1.82  99.25   6.48   5.59   2.23   1.35   1.10   0.43  29.13  25.65
 1981 001   366   99.20  41.69    1.86  99.21   6.48   5.59   2.21   1.32   1.19   0.45  31.46  27.28
 1981 002   367   99.09  37.77    1.69  99.10   6.48   5.58   2.19   1.29   1.04   0.37  28.53  25.05
 1981 003   368   98.90  32.53    1.49  98.90   6.48   5.58   2.18   1.27   1.00   0.35  27.33  24.97
 1981 004   369   99.47  37.72    1.64  99.43   6.47   5.56   2.15   1.24   0.95   0.31  28.12  23.82
 1981 005   370   99.48  40.52    1.79  99.44   6.48   5.57   2.14   1.23   1.10   0.35  31.24  26.19
 1981 006   371   98.87  24.09    1.13  98.87   6.49   5.57   2.12   1.20   1.00   0.31  28.25  25.14
 1981 007   372   99.48  35.93    1.55  99.45   6.46   5.55   2.09   1.17   0.91   0.27  26.86  23.78
 1981 008   373   64.50  11.55    0.45  61.76   5.75   5.61   1.39   1.25   0.41   0.31  28.08  23.42
 1981 009   374   65.11  13.20    0.52  62.22   5.78   5.64   1.45   1.31   0.47   0.36  28.68  24.02
 1981 010   375   67.48  16.02    0.66  66.78   5.85   5.70   1.61   1.47   0.59   0.49  28.41  24.40
 1981 011   376   69.30  18.92    0.80  68.64   5.86   5.70   1.71   1.56   0.71   0.59  29.58  26.04
 1981 012   377   71.29  20.95    0.88  70.53   5.85   5.68   1.78   1.62   0.75   0.63  29.43  26.57
 1981 013   378   72.16  22.07    0.89  70.31   5.83   5.66   1.79   1.62   0.72   0.60  28.40  25.17
 1981 014   379   73.70  23.42    0.94  71.20   5.88   5.70   1.84   1.66   0.74   0.61  28.46  24.59
 1981 015   380   74.60  21.35    0.86  72.91   5.90   5.72   1.83   1.64   0.63   0.52  25.77  22.47
 1981 016   381   75.14  23.35    0.96  73.33   5.95   5.76   1.83   1.64   0.74   0.60  28.42  24.48
 1981 017   382   76.81  23.78    1.03  76.25   6.04   5.84   1.83   1.64   0.82   0.67  29.74  26.66
 1981 018   383   77.43  27.52    1.17  76.11   6.09   5.89   1.94   1.74   0.91   0.75  29.99  26.76
 1981 019   384   78.75  23.47    1.04  78.57   6.10   5.90   1.91   1.71   0.82   0.67  28.05  25.01
 1981 020   385   79.08  26.64    1.14  78.11   6.14   5.92   1.91   1.70   0.85   0.69  28.84  25.75
 1981 021   386   79.23  23.59    0.95  76.87   6.17   5.95   1.89   1.68   0.64   0.52  24.28  21.59
 1981 022   387   79.52  22.15    0.91  77.23   6.22   6.00   1.88   1.66   0.60   0.48  25.54  21.17
 1981 023   388   80.02  25.92    1.09  78.31   6.32   6.09   1.88   1.66   0.77   0.62  28.34  23.72
 1981 024   389   80.22  28.47    1.22  78.50   6.36   6.13   1.86   1.63   0.92   0.73  30.97  26.71
 1981 025   390   81.85  24.53    1.11  81.77   6.47   6.24   1.89   1.66   0.91   0.72  29.57  26.34
 1981 026   391   82.54  26.04    1.17  82.25   6.49   6.26   1.88   1.65   0.89   0.70  29.00  26.38
 1981 027   392   82.25  30.51    1.30  80.32   6.48   6.24   1.85   1.61   0.97   0.75  31.88  28.19
 1981 028   393   83.23  24.65    1.13  83.14   6.50   6.26   1.82   1.58   0.96   0.73  32.23  28.93
 1981 029   394   83.50  23.46    1.07  83.40   6.50   6.26   1.79   1.54   0.83   0.63  29.02  25.98
 1981 030   395   83.11  24.76    1.03  81.23   6.52   6.27   1.77   1.52   0.68   0.51  25.81  22.73
 1981 031   396   83.42  24.25    1.05  82.50   6.55   6.30   1.75   1.50   0.70   0.52  27.43  23.38
 1981 032   397   83.97  25.57    1.16  83.54   6.61   6.36   1.74   1.49   0.89   0.66  31.71  27.87
 1981 033   398   83.73  26.49    1.16  82.65   6.62   6.37   1.71   1.46   0.84   0.62  30.80  27.47
 1981 034   399   83.96  25.79    1.13  82.92   6.66   6.41   1.69   1.44   0.81   0.59  30.10  26.51
 1981 035   400   84.37  21.13    0.92  83.94   6.68   6.43   1.67   1.42   0.59   0.42  24.10  22.06
 1981 036   401   60.02  11.59    0.46  57.32   6.60   6.48   1.55   1.43   0.46   0.39  23.96  20.56
 1981 037   402   61.84  12.48    0.53  61.20   6.72   6.60   1.57   1.45   0.54   0.45  25.70  21.90
 1981 038   403   61.03  16.03    0.67  58.39   6.79   6.67   1.58   1.46   0.71   0.60  29.72  25.50
 1981 039   404   62.98  15.81    0.70  62.30   6.87   6.75   1.59   1.47   0.79   0.67  31.32  27.34
 1981 040   405   64.42  13.62    0.61  64.38   6.91   6.78   1.59   1.47   0.68   0.57  27.24  24.84
 1981 041   406   65.48  12.15    0.56  65.48   6.93   6.80   1.70   1.56   0.68   0.58  25.14  23.24
 1981 042   407   65.15  19.03    0.83  63.76   6.89   6.76   1.70   1.56   0.88   0.75  30.99  27.48
 1981 043   408   65.69  18.61    0.82  64.57   6.88   6.74   1.67   1.53   0.87   0.74  31.78  28.28
 1981 044   409   66.79  16.72    0.75  66.24   6.89   6.75   1.65   1.51   0.76   0.64  28.42  25.53
 1981 045   410   68.15  11.06    0.51  68.15   6.91   6.77   1.65   1.51   0.54   0.45  23.05  20.73
 1981 046   411   67.72  17.19    0.77  67.09   6.91   6.76   1.64   1.49   0.79   0.65  29.65  26.11
 1981 047   412   69.00  14.93    0.68  68.94   6.94   6.79   1.64   1.49   0.70   0.58  26.93  24.07
 1981 048   413   68.26  21.21    0.93  66.13   6.95   6.80   1.72   1.57   0.93   0.78  31.85  27.60
 1981 049   414   68.88  21.27    0.93  66.79   6.96   6.81   1.70   1.55   0.92   0.77  32.19  28.30
 1981 050   415   70.23  17.05    0.78  69.85   6.95   6.80   1.67   1.51   0.74   0.61  27.40  24.76
 1981 051   416   70.30  18.01    0.81  69.55   6.96   6.80   1.65   1.50   0.77   0.64  28.68  25.75
 1981 052   417   69.87  20.10    0.87  66.88   6.98   6.82   1.64   1.48   0.80   0.65  29.79  26.18
 1981 053   418   70.14  20.04    0.87  67.35   7.01   6.85   1.63   1.47   0.81   0.66  30.27  26.88
 1981 054   419   70.35  19.71    0.86  67.57   7.04   6.88   1.60   1.44   0.80   0.64  30.46  26.82
 1981 055   420   70.88  20.36    0.89  67.87   7.10   6.94   1.60   1.44   0.83   0.66  31.24  27.57
 1981 056   421   71.04  20.18    0.89  68.14   7.12   6.95   1.58   1.42   0.84   0.66  32.23  28.31
 1981 057   422   71.19  19.20    0.85  68.86   7.13   6.97   1.55   1.39   0.81   0.64  32.00  28.26
 1981 058   423   71.08  19.30    0.85  68.18   7.14   6.97   1.52   1.36   0.81   0.63  33.25  29.40
 1981 059   424   72.10  17.88    0.82  71.23   7.21   7.05   1.61   1.44   0.77   0.62  28.74  26.28
 1981 060   425   71.86  17.68    0.78  69.59   7.21   7.04   1.59   1.43   0.69   0.55  27.83  23.73
 1981 061   426   72.76  16.90    0.79  71.97   7.22   7.05   1.58   1.41   0.73   0.58  29.27  24.81
 1981 062   427   74.01  13.38    0.64  74.02   7.24   7.07   1.60   1.42   0.63   0.50  25.05  22.88
 1981 063   428   73.21  16.16    0.71  70.78   7.21   7.03   1.61   1.44   0.57   0.45  24.91  21.28
 1981 064   429   58.15  13.23    0.59  55.89   7.19   7.08   1.63   1.52   0.68   0.59  27.54  23.09
 1981 065   430   59.60  14.84    0.68  58.17   7.18   7.07   1.71   1.60   0.79   0.70  27.67  24.22
 1981 066   431   61.89  13.55    0.64  61.68   7.13   7.01   1.80   1.69   0.75   0.67  24.90  22.66
 1981 067   432   62.44  15.47    0.70  61.03   7.05   6.92   1.88   1.75   0.73   0.65  25.06  21.61
 1981 068   433   63.42  17.46    0.78  60.47   7.02   6.89   1.97   1.84   0.81   0.72  26.25  22.13
 1981 069   434   64.85  19.35    0.88  61.89   7.01   6.87   2.05   1.92   0.90   0.81  27.08  22.82
 1981 070   435   66.52  21.04    0.98  64.64   6.99   6.85   2.14   2.00   1.02   0.92  27.53  23.84
 1981 071   436   68.16  22.10    1.02  65.71   6.92   6.77   2.22   2.07   1.02   0.92  27.36  23.32
 1981 072   437   68.60  21.18    1.01  66.53   6.88   6.73   2.17   2.02   0.99   0.89  27.52  23.41
 1981 073   438   70.54  19.26    0.97  70.38   6.90   6.74   2.27   2.11   1.10   0.99  27.18  24.52
 1981 074   439   71.25  22.40    1.04  68.50   6.80   6.64   2.30   2.14   0.94   0.85  25.94  22.11
 1981 075   440   72.49  19.73    0.90  70.19   6.81   6.64   2.37   2.20   0.72   0.65  21.67  19.01
 1981 076   441   73.64  16.21    0.74  70.73   6.84   6.66   2.43   2.26   0.55   0.50  21.49  17.38
 1981 077   442   74.37  20.47    0.97  71.54   6.88   6.70   2.47   2.30   0.77   0.69  24.55  19.73
 1981 078   443   75.48  21.80    1.08  74.96   6.90   6.71   2.52   2.34   0.93   0.84  24.05  20.76
 1981 079   444   76.61  20.32    0.94  74.13   6.84   6.65   2.56   2.37   0.69   0.63  21.68  18.25
 1981 080   445   77.60  17.86    0.84  74.83   6.87   6.67   2.60   2.41   0.58   0.52  21.97  17.48
 1981 081   446   78.29  22.23    1.07  75.58   6.90   6.70   2.63   2.43   0.80   0.72  25.09  19.83
 1981 082   447   78.98  27.47    1.37  76.91   6.90   6.70   2.66   2.46   1.16   1.05  27.97  22.88
 1981 083   448   80.29  26.90    1.32  78.14   6.86   6.64   2.61   2.39   1.05   0.94  25.60  21.86
 1981 084   449   80.69  23.47    1.15  78.36   6.82   6.60   2.55   2.33   0.84   0.75  24.55  20.11
 1981 085   450   80.91  27.02    1.34  78.37   6.81   6.59   2.50   2.29   1.08   0.96  27.37  22.79
 1981 086   451   80.94  27.01    1.34  78.62   6.81   6.59   2.44   2.23   1.11   0.97  27.60  23.31
 1981 087   452   80.74  27.07    1.36  79.20   6.82   6.60   2.38   2.17   1.19   1.03  28.01  24.99
 1981 088   453   80.74  22.07    1.16  80.45   6.83   6.61   2.32   2.10   1.07   0.92  27.05  23.50
 1981 089   454   80.84  23.76    1.21  79.92   6.83   6.61   2.27   2.05   1.00   0.86  25.66  23.17
 1981 090   455   81.24  19.56    1.03  81.14   6.89   6.67   2.32   2.10   0.93   0.80  24.20  21.61
 1981 091   456   82.24  24.08    1.19  79.91   6.89   6.66   2.34   2.11   0.92   0.79  25.20  21.42
 1981 092   457   60.65  14.72    0.71  57.66   6.84   6.73   2.29   2.18   0.81   0.75  25.06  20.61
 1981 093   458   61.73  16.00    0.81  60.58   6.88   6.76   2.36   2.24   0.97   0.90  25.70  21.96
 1981 094   459   63.44  16.33    0.79  60.55   6.85   6.72   2.42   2.29   0.85   0.79  23.98  20.42
 1981 095   460   65.01  17.41    0.86  61.72   6.85   6.72   2.48   2.35   0.93   0.86  26.11  21.26
 1981 096   461   66.37  19.00    0.94  63.36   6.85   6.72   2.54   2.40   1.02   0.95  26.11  21.85
 1981 097   462   68.06  21.99    1.11  64.91   6.82   6.68   2.59   2.45   1.28   1.19  29.58  24.53
 1981 098   463   69.61  22.15    1.12  67.23   6.76   6.61   2.63   2.48   1.26   1.16  28.15  24.22
 1981 099   464   71.10  20.09    1.07  70.36   6.67   6.51   2.67   2.51   1.18   1.09  27.11  23.33
 1981 100   465   72.79  16.51    0.90  72.73   6.56   6.40   2.70   2.53   1.10   1.02  25.16  22.79
 1981 101   466   74.14  18.07    0.99  74.01   6.43   6.26   2.70   2.53   1.18   1.08  27.09  23.86
 1981 102   467   75.48  20.54    1.10  75.01   6.31   6.13   2.71   2.53   1.15   1.05  26.56  23.86
 1981 103   468   76.82  18.62    1.00  76.56   6.20   6.01   2.72   2.53   0.94   0.85  24.14  21.23
 1981 104   469   77.95  15.47    0.85  77.93   6.14   5.94   2.74   2.54   0.84   0.77  22.60  20.18
 1981 105   470   79.17  19.28    0.98  78.07   6.07   5.87   2.75   2.55   0.72   0.65  21.00  18.79
 1981 106   471   80.87  17.53    0.88  78.42   6.08   5.87   2.79   2.58   0.61   0.55  21.35  17.76
 1981 107   472   80.50  18.77    0.99  79.83   6.10   5.89   2.81   2.60   0.71   0.64  22.19  18.71
 1981 108   473   82.46  19.78    1.02  80.05   6.09   5.87   2.83   2.61   0.74   0.67  23.76  19.31
 1981 109   474   83.31  22.30    1.16  80.80   6.10   5.88   2.85   2.62   0.90   0.81  25.26  20.86
 1981 110   475   83.67  22.42    1.18  81.78   6.10   5.87   2.86   2.63   0.90   0.81  25.40  20.90
 1981 111   476   85.04  23.45    1.24  82.52   6.09   5.85   2.88   2.64   0.97   0.87  26.49  21.66
 1981 112   477   84.27  23.15    1.27  83.61   6.08   5.83   2.88   2.64   1.07   0.96  26.48  22.54
 1981 113   478   86.12  22.82    1.19  84.30   6.02   5.76   2.88   2.63   0.87   0.77  23.11  20.31
 1981 114   479   85.62  17.20    0.91  85.12   6.01   5.75   2.89   2.63   0.53   0.47  19.43  16.49
 1981 115   480   85.62  14.45    0.82  85.62   6.02   5.76   2.91   2.65   0.66   0.59  20.15  17.80
 1981 116   481   86.31  20.40    1.13  86.06   6.00   5.72   2.91   2.64   0.83   0.74  22.05  19.86
 1981 117   482   87.03  20.00    1.09  86.67   5.96   5.68   2.92   2.64   0.72   0.64  21.00  18.58
 1981 118   483   87.11  15.71    0.87  87.10   5.95   5.67   2.93   2.64   0.59   0.52  18.49  16.92
 1981 119   484   88.45  17.16    0.90  87.71   5.94   5.65   2.93   2.65   0.49   0.43  18.49  15.91
 1981 120   485   89.84  16.10    0.85  88.27   5.97   5.67   2.95   2.66   0.47   0.41  19.83  16.13
 1981 121   486   90.21  16.97    0.90  88.62   5.99   5.69   2.96   2.67   0.51   0.45  20.16  16.53
 1981 122   487   90.56  18.14    0.98  88.97   6.01   5.71   2.97   2.67   0.58   0.51  22.23  17.72
 1981 123   488   88.98  20.56    1.18  88.78   6.02   5.72   2.97   2.67   0.86   0.75  24.76  20.32
 1981 124   489   91.23  24.15    1.34  89.83   5.99   5.68   2.97   2.65   1.00   0.87  25.77  21.71
 1981 125   490   91.42  26.84    1.52  90.25   5.96   5.65   2.96   2.64   1.30   1.13  29.28  25.43
 1981 126   491   89.91  18.91    1.12  89.91   5.90   5.58   2.93   2.60   1.04   0.89  24.68  22.65
 1981 127   492   92.86  26.44    1.50  91.41   5.83   5.50   2.90   2.57   1.21   1.04  28.73  24.82
 1981 128   493   93.31  26.45    1.51  91.85   5.80   5.46   2.88   2.55   1.21   1.03  28.78  24.97
 1981 129   494   91.26  21.42    1.27  91.19   5.76   5.42   2.86   2.52   1.10   0.93  26.73  23.83
 1981 130   495   92.00  22.63    1.32  91.78   5.70   5.35   2.84   2.48   1.04   0.88  26.34  23.31
 1981 131   496   92.02  21.67    1.28  91.94   5.65   5.30   2.82   2.46   1.08   0.90  26.82  24.10
 1981 132   497   93.40  24.19    1.40  92.86   5.60   5.23   2.79   2.43   1.11   0.92  28.17  24.58
 1981 133   498   92.97  22.50    1.33  92.76   5.56   5.19   2.77   2.40   1.05   0.86  27.33  23.84
 1981 134   499   92.64  18.24    1.08  92.63   5.52   5.14   2.75   2.38   0.73   0.60  22.02  19.81
 1981 135   500   92.88  15.41    0.89  92.87   5.50   5.12   2.75   2.37   0.46   0.37  19.21  16.37
 1981 136   501   95.35  16.64    0.96  94.34   5.50   5.12   2.76   2.38   0.54   0.44  22.41  18.00
 1981 137   502   95.16  21.26    1.22  94.34   5.51   5.13   2.76   2.37   0.83   0.67  24.21  21.07
 1981 138   503   94.76  22.04    1.28  94.25   5.51   5.12   2.75   2.36   0.92   0.74  25.77  22.27
 1981 139   504   94.36  21.95    1.30  94.10   5.48   5.09   2.74   2.34   0.97   0.78  26.89  23.13
 1981 140   505   93.95  15.03    0.85  93.89   5.45   5.05   2.72   2.32   0.40   0.32  17.98  15.62
 1981 141   506   96.09  13.52    0.78  95.21   5.47   5.07   2.73   2.33   0.39   0.31  20.69  16.34
 1981 142   507   95.28  20.33    1.19  94.84   5.48   5.08   2.73   2.33   0.79   0.63  24.55  20.76
 1981 143   508   96.23  22.32    1.32  95.43   5.47   5.06   2.72   2.31   0.97   0.77  26.60  23.22
 1981 144   509   96.41  21.48    1.28  95.60   5.45   5.04   2.70   2.29   0.91   0.72  26.18  22.47
 1981 145   510   93.90  13.80    0.85  93.90   5.44   5.02   2.68   2.27   0.73   0.57  22.32  20.07
 1981 146   511   94.08  13.64    0.81  94.12   5.41   4.99   2.66   2.24   0.45   0.35  18.05  16.29
 1981 147   512   95.74  14.07    0.79  95.41   5.41   4.99   2.67   2.25   0.37   0.29  17.98  15.37
 1981 148   513   75.12   9.13    0.51  71.41   5.19   5.03   2.43   2.28   0.44   0.40  20.90  17.44
 1981 149   514   75.82  11.01    0.62  72.08   5.22   5.06   2.45   2.30   0.58   0.52  23.02  19.30
 1981 150   515   76.24  11.08    0.63  72.86   5.25   5.09   2.49   2.33   0.57   0.52  23.35  19.24
 1981 151   516   77.33  11.78    0.68  73.77   5.27   5.10   2.53   2.36   0.62   0.56  23.56  19.61
 1981 152   517   75.93  13.22    0.77  74.11   5.28   5.12   2.56   2.39   0.72   0.66  24.85  20.91
 1981 153   518   73.89   7.90    0.47  73.89   5.27   5.10   2.59   2.42   0.42   0.38  17.74  16.16
 1981 154   519   79.23   5.64    0.30  76.23   5.27   5.10   2.61   2.43   0.20   0.18  14.94  12.77
 1981 155   520   78.27   3.48    0.19  76.17   5.31   5.13   2.63   2.45   0.12   0.11  16.17  12.43
 1981 156   521   79.15   5.45    0.31  76.50   5.32   5.14   2.64   2.46   0.20   0.18  17.60  13.76
 1981 157   522   74.91   8.29    0.50  74.91   5.35   5.17   2.65   2.47   0.43   0.39  17.73  16.16
 1981 158   523   75.93   6.67    0.37  75.81   5.34   5.16   2.67   2.48   0.23   0.21  15.14  13.14
 1981 159   524   78.53   6.33    0.34  77.10   5.37   5.19   2.69   2.51   0.21   0.19  15.16  12.90
 1981 160   525   81.52   5.53    0.32  78.22   5.40   5.22   2.71   2.52   0.20   0.18  18.81  14.30
 1981 161   526   76.16   6.24    0.37  76.20   5.42   5.24   2.71   2.52   0.23   0.21  16.28  13.46
 1981 162   527   79.45   6.11    0.34  77.94   5.44   5.25   2.72   2.54   0.20   0.19  15.64  12.93
 1981 163   528   81.85   2.56    0.14  78.89   5.47   5.28   2.74   2.55   0.08   0.07  16.12  12.07
 1981 164   529   79.39   1.95    0.11  78.08   5.47   5.28   2.74   2.55   0.06   0.05  14.60  11.10
 1981 165   530   81.57   1.78    0.10  78.83   5.48   5.29   2.74   2.55   0.05   0.05  13.90  10.70
 1981 166   531   81.97  10.01    0.57  78.94   5.48   5.29   2.75   2.56   0.43   0.39  18.92  16.05
 1981 167   532   79.01   5.57    0.30  78.14   5.51   5.32   2.77   2.58   0.17   0.16  13.37  11.74
 1981 168   533   80.13   2.59    0.14  78.74   5.54   5.35   2.79   2.60   0.08   0.07  12.68  10.33
 1981 169   534   83.16   2.89    0.16  79.78   5.55   5.36   2.79   2.60   0.09   0.08  14.65  11.39
 1981 170   535   83.29   3.61    0.21  79.84   5.56   5.37   2.79   2.60   0.12   0.11  16.68  12.61
 1981 171   536   77.30   0.90    0.05  77.33   5.58   5.38   2.79   2.60   0.03   0.02  14.82  10.94
 1981 172   537   82.07   5.49    0.32  79.51   5.57   5.38   2.79   2.60   0.19   0.18  19.68  14.60
 1981 173   538   77.37   6.36    0.37  77.40   5.58   5.39   2.79   2.59   0.23   0.21  15.09  12.91
 1981 174   539   78.18   9.22    0.53  78.08   5.60   5.41   2.81   2.61   0.35   0.32  16.18  14.42
 1981 175   540   83.02   8.56    0.48  80.39   5.62   5.42   2.83   2.63   0.32   0.29  16.76  14.26
 1981 176   541   79.30   8.82    0.52  79.02   5.65   5.45   2.84   2.64   0.33   0.30  19.15  15.18
 1981 177   542   83.61  16.21    0.96  81.05   5.66   5.46   2.85   2.65   0.90   0.82  25.21  21.46
 1981 178   543   80.57  14.53    0.89  80.24   5.64   5.43   2.85   2.64   0.79   0.72  23.58  20.22
 1981 179   544   80.32  12.22    0.75  80.36   5.60   5.38   2.86   2.64   0.68   0.61  20.35  18.69
 1981 180   545   81.22  13.53    0.83  81.19   5.56   5.34   2.86   2.64   0.72   0.65  21.31  19.28
 1981 181   546   82.49  14.70    0.88  82.21   5.53   5.31   2.86   2.64   0.72   0.65  21.41  19.38
 1981 182   547   82.29   6.88    0.39  82.32   5.51   5.28   2.87   2.64   0.20   0.18  14.60  12.41
 1981 183   548   86.38   3.94    0.22  84.49   5.53   5.30   2.88   2.65   0.10   0.09  12.82  10.66
 1981 184   549   86.89   5.57    0.32  84.71   5.55   5.31   2.89   2.66   0.16   0.15  16.86  13.00
 1981 185   550   85.75   6.25    0.36  84.31   5.56   5.33   2.89   2.65   0.18   0.16  16.49  12.95
 1981 186   551   87.26   7.47    0.43  84.94   5.58   5.34   2.89   2.66   0.23   0.21  16.77  13.50
 1981 187   552   87.35  10.52    0.60  85.06   5.60   5.37   2.90   2.66   0.38   0.34  18.02  15.10
 1981 188   553   87.25  10.28    0.59  85.19   5.63   5.39   2.91   2.67   0.36   0.32  18.64  15.17
 1981 189   554   87.65  11.48    0.67  85.48   5.65   5.41   2.92   2.68   0.43   0.38  19.71  16.04
 1981 190   555   88.04  11.79    0.69  85.79   5.67   5.43   2.92   2.68   0.44   0.40  19.97  16.23
 1981 191   556   85.05  13.92    0.82  84.64   5.69   5.45   2.93   2.68   0.55   0.49  20.46  17.15
 1981 192   557   84.22  11.74    0.71  84.25   5.69   5.44   2.94   2.69   0.49   0.44  17.64  16.06
 1981 193   558   87.19  17.69    1.05  86.11   5.69   5.43   2.95   2.69   0.83   0.74  23.46  20.27
 1981 194   559   85.09  13.29    0.82  85.13   5.66   5.40   2.94   2.68   0.72   0.64  20.96  18.95
 1981 195   560   89.74  20.07    1.19  87.71   5.63   5.36   2.93   2.66   1.01   0.90  25.81  22.68
 1981 196   561   86.43  17.01    1.05  86.39   5.60   5.33   2.92   2.65   0.98   0.86  25.33  22.36
 1981 197   562   86.51  11.90    0.73  86.52   5.54   5.26   2.90   2.62   0.58   0.51  19.54  17.50
 1981 198   563   86.84   5.71    0.32  86.84   5.52   5.24   2.90   2.61   0.14   0.12  13.11  11.16
 1981 199   564   91.14   5.28    0.30  89.08   5.54   5.25   2.91   2.62   0.12   0.11  15.52  12.04
 1981 200   565   87.02   0.43    0.02  87.04   5.55   5.27   2.90   2.62   0.01   0.01  12.43   9.41
 1981 201   566   87.06   7.59    0.43  87.08   5.55   5.27   2.90   2.62   0.19   0.16  14.64  12.26
 1981 202   567   88.64   8.07    0.43  88.08   5.57   5.29   2.92   2.64   0.18   0.16  14.63  12.20
 1981 203   568   88.69   6.21    0.33  88.16   5.59   5.31   2.93   2.65   0.13   0.12  13.52  11.22
 1981 204   569   70.16   3.30    0.16  68.65   5.50   5.35   2.82   2.68   0.12   0.11  12.62  10.79
 1981 205   570   68.98   0.95    0.05  68.62   5.52   5.38   2.83   2.68   0.03   0.03  13.13  10.07
 1981 206   571   69.45   4.81    0.25  68.62   5.52   5.38   2.83   2.69   0.18   0.17  14.43  12.13
 1981 207   572   71.50   5.88    0.31  68.94   5.55   5.41   2.85   2.71   0.23   0.22  16.29  13.29
 1981 208   573   72.93   5.63    0.30  69.23   5.59   5.44   2.87   2.72   0.23   0.21  18.25  14.08
 1981 209   574   71.46   7.56    0.40  69.37   5.62   5.47   2.87   2.72   0.31   0.29  18.30  14.66
 1981 210   575   72.38  13.72    0.76  69.75   5.65   5.50   2.89   2.74   0.73   0.68  23.63  19.55
 1981 211   576   70.74  11.04    0.64  70.70   5.65   5.50   2.91   2.76   0.64   0.60  20.96  18.18
 1981 212   577   71.64  10.97    0.64  71.63   5.62   5.46   2.92   2.76   0.69   0.64  21.35  18.70
 1981 213   578   73.49  14.66    0.82  72.59   5.59   5.42   2.93   2.77   0.75   0.70  22.80  19.58
 1981 214   579   75.95  16.46    0.91  73.67   5.57   5.40   2.95   2.78   0.85   0.79  25.16  20.90
 1981 215   580   77.78  19.26    1.07  74.75   5.56   5.38   2.96   2.79   1.08   1.00  27.97  23.53
 1981 216   581   78.52  19.67    1.09  75.92   5.53   5.34   2.97   2.78   1.08   1.00  28.14  23.63
 1981 217   582   77.69  19.03    1.09  76.97   5.50   5.31   2.97   2.78   1.15   1.06  28.36  24.69
 1981 218   583   78.09  13.63    0.80  78.09   5.43   5.23   2.96   2.76   0.91   0.83  24.29  21.79
 1981 219   584   78.96  12.56    0.74  78.96   5.36   5.15   2.94   2.74   0.81   0.74  22.87  20.68
 1981 220   585   81.62  14.24    0.73  79.77   5.31   5.10   2.93   2.72   0.49   0.44  18.82  16.52
 1981 221   586   83.25   1.58    0.08  80.25   5.35   5.13   2.96   2.74   0.04   0.03  12.94  10.00
 1981 222   587   82.87   5.65    0.29  80.15   5.35   5.14   2.96   2.74   0.15   0.14  17.38  13.15
 1981 223   588   82.96   4.29    0.22  80.15   5.37   5.16   2.96   2.75   0.11   0.10  19.37  13.91
 1981 224   589   80.61   9.71    0.50  80.21   5.38   5.16   2.95   2.73   0.27   0.25  17.14  13.98
 1981 225   590   82.65  11.22    0.56  80.31   5.41   5.19   2.98   2.76   0.33   0.30  17.27  14.48
 1981 226   591   83.38   7.29    0.37  80.55   5.46   5.24   2.99   2.77   0.19   0.18  17.24  13.36
 1981 227   592   83.39  11.64    0.60  80.63   5.49   5.27   3.00   2.77   0.36   0.33  20.29  15.80
 1981 228   593   82.92  16.16    0.85  80.95   5.53   5.30   3.00   2.78   0.56   0.51  23.07  18.16
 1981 229   594   83.52  18.08    0.94  81.42   5.55   5.32   3.01   2.79   0.64   0.58  22.08  18.40
 1981 230   595   84.60  14.62    0.75  81.92   5.57   5.34   3.03   2.79   0.46   0.42  20.30  16.43
 1981 231   596   84.91   9.76    0.49  82.26   5.61   5.38   3.04   2.80   0.26   0.23  17.90  14.04
 1981 232   597   84.82  10.10    0.51  82.44   5.65   5.41   3.05   2.81   0.27   0.24  18.84  14.49
 1981 233   598   84.75  13.36    0.69  82.64   5.68   5.44   3.05   2.81   0.39   0.35  22.06  16.64
 1981 234   599   85.11  16.37    0.84  82.92   5.71   5.46   3.05   2.81   0.51   0.46  21.61  17.14
 1981 235   600   85.21  18.34    0.95  83.35   5.74   5.49   3.06   2.81   0.60   0.54  23.09  18.21
 1981 236   601   84.84  20.63    1.09  83.99   5.76   5.51   3.07   2.82   0.71   0.64  22.96  18.90
 1981 237   602   84.80  15.53    0.85  84.79   5.76   5.50   3.07   2.82   0.59   0.53  20.44  17.24
 1981 238   603   85.26  15.31    0.84  85.26   5.75   5.49   3.08   2.81   0.63   0.56  19.55  17.45
 1981 239   604   85.71  14.88    0.79  85.70   5.74   5.47   3.08   2.81   0.48   0.43  17.44  15.68
 1981 240   605   87.47  14.39    0.71  85.71   5.75   5.48   3.09   2.82   0.36   0.32  18.92  15.09
 1981 241   606   86.38  19.61    1.05  86.27   5.79   5.51   3.10   2.82   0.69   0.62  20.78  18.16
 1981 242   607   87.05  18.28    0.94  86.68   5.78   5.50   3.10   2.82   0.49   0.44  19.31  16.16
 1981 243   608   87.35  14.24    0.70  87.06   5.81   5.52   3.12   2.83   0.31   0.28  16.04  13.69
 1981 244   609   87.40  12.32    0.63  87.40   5.85   5.56   3.13   2.84   0.32   0.28  14.41  13.30
 1981 245   610   87.64  12.69    0.65  87.64   5.87   5.58   3.15   2.86   0.34   0.30  14.84  13.59
 1981 246   611   87.89  14.97    0.79  87.89   5.89   5.59   3.16   2.87   0.47   0.42  16.13  15.22
 1981 247   612   89.08  15.34    0.73  87.94   5.90   5.60   3.17   2.87   0.33   0.29  16.15  13.75
 1981 248   613   89.92  13.12    0.65  88.04   5.94   5.64   3.19   2.88   0.29   0.26  18.92  14.54
 1981 249   614   90.05  15.71    0.79  88.17   5.98   5.67   3.18   2.88   0.37   0.33  20.52  15.71
 1981 250   615   89.93  24.48    1.25  88.37   6.01   5.70   3.18   2.88   0.74   0.66  25.43  19.64
 1981 251   616   89.67  30.78    1.60  88.74   6.02   5.71   3.12   2.81   1.14   1.01  27.59  22.88
 1981 252   617   89.65  28.78    1.55  89.42   6.00   5.68   3.07   2.74   1.23   1.08  28.12  24.03
 1981 253   618   90.04  17.33    0.92  90.04   5.95   5.62   2.98   2.65   0.62   0.54  18.76  17.29
 1981 254   619   90.36  17.21    0.92  90.36   5.94   5.61   2.96   2.62   0.60   0.51  19.50  17.12
 1981 255   620   90.58  21.35    1.13  90.57   5.93   5.59   2.92   2.58   0.74   0.63  20.78  18.75
 1981 256   621   90.85  16.19    0.83  90.85   5.93   5.58   2.93   2.58   0.46   0.39  15.90  15.31
 1981 257   622   91.06  17.73    0.93  91.06   5.94   5.59   2.94   2.59   0.53   0.45  18.59  16.34
 1981 258   623   91.21  13.39    0.64  91.19   5.94   5.59   2.91   2.56   0.24   0.21  14.19  12.54
 1981 259   624   92.41   8.11    0.40  91.02   5.94   5.59   2.90   2.55   0.14   0.11  16.22  12.39
 1981 260   625   65.91   8.73    0.40  63.29   5.79   5.65   2.71   2.57   0.32   0.30  19.92  15.45
 1981 261   626   66.23  17.69    0.85  64.36   5.88   5.74   2.68   2.55   0.81   0.76  25.30  20.75
 1981 262   627   67.58  11.41    0.57  67.58   5.92   5.78   2.63   2.49   0.59   0.54  18.74  17.58
 1981 263   628   68.23  11.10    0.55  68.23   5.95   5.80   2.60   2.45   0.50   0.47  17.66  16.53
 1981 264   629   68.06   8.24    0.35  65.56   5.99   5.84   2.57   2.42   0.26   0.24  15.16  13.18
 1981 265   630   68.87   8.82    0.41  68.85   6.05   5.90   2.56   2.41   0.31   0.28  16.68  14.10
 1981 266   631   69.15  11.50    0.56  69.15   6.10   5.95   2.55   2.40   0.51   0.47  17.82  16.58
 1981 267   632   69.69  12.47    0.62  69.69   6.16   6.00   2.60   2.44   0.61   0.56  19.54  17.70
 1981 268   633   70.29  15.80    0.78  70.27   6.18   6.02   2.56   2.41   0.75   0.69  21.34  19.50
 1981 269   634   70.47  21.30    1.01  68.97   6.19   6.04   2.53   2.37   0.91   0.83  25.45  21.70
 1981 270   635   70.87  22.49    1.07  68.82   6.22   6.06   2.47   2.31   0.98   0.89  27.82  22.89
 1981 271   636   71.40  22.32    1.08  70.25   6.25   6.09   2.42   2.26   1.00   0.91  27.25  23.25
 1981 272   637   72.44   7.94    0.34  72.28   6.30   6.14   2.37   2.20   0.22   0.20  15.16  12.89
 1981 273   638   72.00   4.58    0.19  69.38   6.37   6.20   2.41   2.24   0.12   0.11  14.87  11.75
 1981 274   639   72.10   3.39    0.15  69.18   6.41   6.24   2.42   2.25   0.09   0.08  17.81  12.98
 1981 275   640   72.02  13.43    0.60  69.26   6.42   6.26   2.42   2.25   0.43   0.39  22.84  17.41
 1981 276   641   72.48  21.32    0.99  70.89   6.49   6.32   2.47   2.30   0.81   0.73  25.51  20.64
 1981 277   642   74.42  14.02    0.67  74.42   6.53   6.35   2.44   2.26   0.55   0.50  18.14  16.90
 1981 278   643   75.07  13.33    0.63  75.07   6.53   6.35   2.42   2.24   0.50   0.44  17.80  16.24
 1981 279   644   75.30  15.67    0.75  75.30   6.53   6.35   2.40   2.22   0.63   0.56  19.88  18.03
 1981 280   645   75.25  14.54    0.62  74.05   6.57   6.38   2.46   2.27   0.39   0.35  17.26  14.91
 1981 281   646   75.58   7.28    0.31  73.04   6.65   6.46   2.51   2.32   0.18   0.16  16.25  12.73
 1981 282   647   75.66   4.17    0.17  73.23   6.69   6.50   2.50   2.31   0.10   0.09  16.14  12.11
 1981 283   648   75.68   7.44    0.32  73.28   6.71   6.52   2.50   2.31   0.18   0.16  18.14  13.66
 1981 284   649   75.99  14.37    0.62  74.72   6.75   6.56   2.49   2.30   0.38   0.34  19.23  15.38
 1981 285   650   75.95  17.29    0.75  74.03   6.76   6.57   2.47   2.28   0.48   0.43  20.11  16.44
 1981 286   651   76.48  15.53    0.67  73.82   6.85   6.65   2.47   2.27   0.43   0.38  20.37  16.13
 1981 287   652   76.64  18.37    0.80  74.07   6.89   6.70   2.45   2.25   0.53   0.48  22.11  17.48
 1981 288   653   76.78  24.98    1.13  75.38   6.91   6.72   2.42   2.22   0.84   0.75  24.76  20.44
 1981 289   654   77.42  22.04    0.96  75.86   7.00   6.80   2.40   2.20   0.64   0.57  20.60  17.78
 1981 290   655   77.98   7.01    0.29  75.60   7.10   6.90   2.46   2.26   0.15   0.14  16.23  12.52
 1981 291   656   78.64  10.92    0.47  78.30   7.15   6.94   2.45   2.25   0.25   0.23  18.49  14.21
 1981 292   657   78.80  18.80    0.85  78.61   7.16   6.96   2.44   2.23   0.53   0.47  19.90  16.59
 1981 293   658   78.92  22.91    1.03  78.46   7.20   6.99   2.42   2.21   0.69   0.61  20.78  18.10
 1981 294   659   78.44  22.54    1.00  76.18   7.20   7.00   2.38   2.18   0.67   0.59  22.43  18.43
 1981 295   660   78.46  22.33    0.96  76.34   7.24   7.03   2.35   2.14   0.63   0.56  22.05  18.09
 1981 296   661   78.40  22.39    1.01  76.02   7.26   7.05   2.32   2.11   0.68   0.60  25.18  19.57
 1981 297   662   78.35  29.18    1.31  76.33   7.30   7.09   2.28   2.07   1.01   0.88  28.06  22.63
 1981 298   663   79.30  28.84    1.36  78.79   7.46   7.25   2.27   2.06   1.17   1.02  28.37  23.90
 1981 299   664   79.86  19.67    0.94  79.86   7.47   7.26   2.22   2.01   0.93   0.80  23.41  21.48
 1981 300   665   79.97  24.51    1.14  79.85   7.48   7.26   2.18   1.97   0.92   0.79  23.89  21.43
 1981 301   666   79.55  29.40    1.31  78.40   7.50   7.28   2.15   1.93   1.02   0.86  25.47  22.93
 1981 302   667   79.32  31.68    1.40  77.33   7.51   7.30   2.10   1.89   1.13   0.96  28.40  24.68
 1981 303   668   79.33  32.79    1.44  76.89   7.55   7.33   2.06   1.84   1.17   0.98  29.37  25.83
 1981 304   669   79.63  33.80    1.50  77.30   7.65   7.43   2.01   1.80   1.28   1.06  31.98  27.43
 1981 305   670   79.75  31.54    1.41  78.13   7.67   7.46   1.97   1.75   1.20   0.99  30.84  26.94
 1981 306   671   81.09  22.26    1.06  81.09   7.75   7.52   1.94   1.72   1.04   0.85  27.67  24.85
 1981 307   672   80.67  29.53    1.31  79.37   7.74   7.52   1.91   1.69   1.03   0.83  27.76  25.15
 1981 308   673   81.61  28.19    1.27  80.93   7.77   7.54   1.96   1.73   0.97   0.79  25.94  23.50
 1981 309   674   82.32  22.58    1.04  82.34   7.75   7.52   1.93   1.70   0.85   0.68  23.81  22.05
 1981 310   675   82.52  21.65    1.00  82.53   7.73   7.50   1.90   1.67   0.80   0.64  23.61  21.61
 1981 311   676   81.72  24.28    1.02  79.95   7.72   7.49   1.87   1.64   0.67   0.53  23.05  19.86
 1981 312   677   81.65  24.95    1.07  79.49   7.73   7.50   1.85   1.62   0.72   0.57  25.78  21.12
 1981 313   678   81.65  28.41    1.22  79.38   7.77   7.53   1.83   1.59   0.89   0.69  27.41  23.33
 1981 314   679   81.57  28.80    1.24  79.25   7.79   7.55   1.79   1.56   0.92   0.71  28.43  24.13
 1981 315   680   81.90  28.10    1.20  79.91   7.90   7.67   1.81   1.58   0.86   0.67  26.21  22.88
 1981 316   681   53.95  16.75    0.68  51.19   7.88   7.78   1.78   1.68   0.87   0.79  26.84  23.33
 1981 317   682   55.56  19.16    0.79  53.20   7.95   7.85   1.91   1.81   1.01   0.92  27.45  23.94
 1981 318   683   58.08  20.75    0.89  56.56   7.96   7.85   2.05   1.94   1.09   1.01  27.26  23.79
 1981 319   684   60.34  22.43    0.96  58.86   7.91   7.79   2.17   2.06   1.11   1.03  26.22  23.14
 1981 320   685   62.48  23.00    0.96  60.73   7.84   7.71   2.30   2.17   1.01   0.93  24.41  21.29
 1981 321   686   64.22  26.06    1.09  61.70   7.80   7.67   2.41   2.27   1.11   1.03  25.82  21.95
 1981 322   687   68.49  23.06    1.05  68.48   7.77   7.62   2.51   2.37   1.17   1.08  25.49  22.05
 1981 323   688   69.67  25.74    1.08  68.57   7.62   7.46   2.58   2.43   0.93   0.86  21.77  19.58
 1981 324   689   70.76  25.81    1.08  67.86   7.60   7.43   2.67   2.50   0.87   0.81  24.06  19.48
 1981 325   690   72.40  33.96    1.46  69.54   7.63   7.45   2.74   2.57   1.28   1.18  28.43  22.95
 1981 326   691   74.73  35.45    1.53  72.88   7.59   7.41   2.81   2.63   1.33   1.23  27.02  22.83
 1981 327   692   77.50  34.36    1.53  76.83   7.52   7.32   2.88   2.68   1.29   1.19  25.37  22.36
 1981 328   693   79.01  38.17    1.64  77.41   7.40   7.19   2.93   2.71   1.29   1.18  25.30  22.36
 1981 329   694   80.82  35.16    1.48  78.55   7.34   7.11   2.98   2.75   1.01   0.93  23.62  19.93
 1981 330   695   82.19  36.46    1.54  80.16   7.35   7.11   3.03   2.79   1.03   0.94  24.17  20.09
 1981 331   696   83.53  38.33    1.64  82.11   7.36   7.11   3.07   2.82   1.10   1.00  24.66  20.54
 1981 332   697   85.33  29.11    1.35  85.33   7.34   7.08   3.11   2.85   1.24   1.13  23.86  21.60
 1981 333   698   86.22  39.44    1.75  85.76   7.20   6.92   3.11   2.83   1.19   1.07  24.57  21.28
 1981 334   699   87.44  38.67    1.77  87.32   7.15   6.86   3.14   2.85   1.38   1.24  26.67  23.09
 1981 335   700   88.49  45.01    1.92  87.03   7.05   6.74   3.15   2.84   1.22   1.09  25.30  21.79
 1981 336   701   89.52  36.90    1.55  88.10   7.04   6.72   3.18   2.85   0.83   0.74  22.53  18.55
 1981 337   702   90.25  38.71    1.66  88.74   7.09   6.75   3.21   2.87   0.90   0.80  24.47  19.53
 1981 338   703   90.90  44.17    1.91  89.45   7.12   6.77   3.23   2.88   1.11   0.99  26.54  21.24
 1981 339   704   91.17  36.42    1.69  91.17   7.13   6.77   3.25   2.89   1.47   1.30  26.94  23.79
 1981 340   705   92.37  52.08    2.25  91.20   7.00   6.63   3.22   2.85   1.42   1.24  26.81  23.59
 1981 341   706   93.17  46.98    2.03  92.05   6.99   6.59   3.25   2.86   1.14   0.99  25.35  21.12
 1981 342   707   93.56  47.56    2.04  92.75   7.00   6.59   3.27   2.87   1.15   0.99  24.50  20.95
 1981 343   708   94.18  50.07    2.17  93.35   7.01   6.59   3.30   2.87   1.25   1.08  26.00  21.92
 1981 344   709   59.53  24.80    1.01  57.63   6.74   6.63   3.05   2.93   1.12   1.07  25.32  21.56
 1981 345   710   62.06  28.23    1.15  59.38   6.75   6.62   3.13   3.00   1.22   1.17  26.96  22.49
 1981 346   711   65.31  31.91    1.32  62.96   6.77   6.63   3.20   3.06   1.37   1.30  27.84  23.58
 1981 347   712   68.70  35.49    1.50  66.63   6.74   6.59   3.26   3.11   1.52   1.45  29.92  25.05
 1981 348   713   72.43  37.54    1.64  71.30   6.70   6.53   3.31   3.14   1.70   1.61  31.40  27.04
 1981 349   714   75.85  35.86    1.57  75.27   6.58   6.40   3.33   3.14   1.43   1.35  27.59  24.55
 1981 350   715   77.68  40.74    1.71  75.09   6.49   6.29   3.36   3.15   1.35   1.26  28.00  23.64
 1981 351   716   79.87  44.45    1.89  77.54   6.52   6.30   3.39   3.16   1.52   1.42  30.49  25.27
 1981 352   717   82.22  44.64    1.97  81.28   6.52   6.28   3.41   3.17   1.69   1.57  31.61  27.24
 1981 353   718   84.51  39.11    1.76  84.34   6.44   6.18   3.40   3.15   1.47   1.35  28.10  25.63
 1981 354   719   85.93  45.21    2.02  85.43   6.34   6.06   3.40   3.12   1.66   1.52  31.77  28.12
 1981 355   720   87.50  40.47    1.81  87.28   6.26   5.96   3.39   3.09   1.28   1.17  26.31  23.59
 1981 356   721   88.70  31.08    1.40  88.70   6.21   5.90   3.39   3.08   0.97   0.87  22.83  20.19
 1981 357   722   89.43  41.45    1.75  88.68   6.19   5.86   3.40   3.07   0.98   0.88  23.25  20.39
 1981 358   723   90.46  45.57    1.94  89.19   6.23   5.89   3.42   3.08   1.15   1.03  26.99  22.30
 1981 359   724   90.96  47.55    2.02  89.66   6.24   5.89   3.33   2.98   1.22   1.08  26.70  22.87
 1981 360   725   91.11  49.79    2.15  90.13   6.25   5.89   3.23   2.88   1.39   1.22  29.00  24.88
 1981 361   726   91.34  49.07    2.15  90.71   6.28   5.92   3.13   2.77   1.43   1.24  29.26  25.86
 1981 362   727   91.75  50.22    2.17  90.84   6.31   5.94   3.03   2.66   1.42   1.21  29.63  25.87
 1981 363   728   92.02  50.53    2.20  91.12   6.36   5.99   2.93   2.56   1.46   1.23  30.67  26.48
 1981 364   729   92.31  50.59    2.20  91.27   6.41   6.04   2.84   2.46   1.43   1.20  30.78  26.34
 1981 365   730   92.15  30.30    1.40  92.15   6.49   6.11   2.76   2.38   1.18   0.97  26.32  23.63
 1982 001   731   92.57  37.70    1.60  92.15   6.51   6.12   2.73   2.34   0.80   0.65  21.99  19.23
 1982 002   732   93.05  37.05    1.57  91.89   6.54   6.15   2.68   2.29   0.79   0.64  24.18  19.78
 1982 003   733   93.12  38.82    1.65  91.96   6.59   6.20   2.64   2.25   0.86   0.70  25.29  20.64
 1982 004   734   93.18  41.09    1.76  92.01   6.65   6.25   2.60   2.21   0.96   0.76  26.20  21.58
 1982 005   735   93.17  46.19    2.00  92.03   6.69   6.30   2.55   2.16   1.20   0.95  28.97  24.28
 1982 006   736   93.25  46.35    2.00  92.32   6.81   6.42   2.51   2.11   1.24   0.97  28.56  24.66
 1982 007   737   61.79  16.54    0.73  61.79   6.69   6.57   2.33   2.21   0.99   0.92  25.34  23.01
 1982 008   738   63.44  18.66    0.82  63.45   6.70   6.57   2.39   2.26   0.97   0.90  24.45  22.40
 1982 009   739   64.34  25.43    1.09  63.54   6.70   6.57   2.49   2.36   1.19   1.11  28.00  24.49
 1982 010   740   65.60  30.47    1.26  63.16   6.72   6.58   2.60   2.46   1.30   1.21  28.85  25.19
 1982 011   741   68.36  30.14    1.25  66.25   6.76   6.60   2.72   2.56   1.16   1.08  26.25  22.88
 1982 012   742   70.57  29.34    1.20  68.02   6.79   6.63   2.82   2.65   1.02   0.95  25.27  21.15
 1982 013   743   72.54  32.87    1.37  69.97   6.85   6.68   2.90   2.72   1.15   1.07  26.25  22.10
 1982 014   744   74.65  37.90    1.60  71.96   6.89   6.70   2.97   2.78   1.36   1.27  28.05  23.89
 1982 015   745   76.94  40.10    1.71  74.33   6.89   6.69   3.03   2.83   1.42   1.31  29.18  24.30
 1982 016   746   79.42  41.93    1.82  77.03   6.90   6.68   2.93   2.71   1.47   1.35  30.28  25.16
 1982 017   747   81.21  27.95    1.31  81.21   6.86   6.64   2.84   2.62   1.40   1.27  28.59  24.82
 1982 018   748   81.27  40.68    1.74  78.95   6.78   6.55   2.76   2.53   1.31   1.18  28.17  24.37
 1982 019   749   81.56  38.17    1.63  79.33   6.78   6.54   2.68   2.44   1.19   1.06  27.67  23.33
 1982 020   750   81.71  41.21    1.79  79.46   6.80   6.56   2.61   2.37   1.39   1.23  30.91  25.89
 1982 021   751   82.23  36.97    1.68  81.64   6.83   6.59   2.53   2.30   1.43   1.25  31.23  27.07
 1982 022   752   82.11  34.97    1.50  80.76   6.86   6.62   2.46   2.22   1.06   0.92  25.69  22.75
 1982 023   753   82.33  30.03    1.28  80.04   6.94   6.70   2.41   2.17   0.82   0.71  25.45  20.57
 1982 024   754   82.29  34.53    1.49  80.03   6.98   6.74   2.36   2.12   1.05   0.90  28.62  23.18
 1982 025   755   82.21  35.88    1.56  79.97   7.02   6.78   2.31   2.07   1.14   0.97  29.73  24.32
 1982 026   756   82.13  36.28    1.58  79.81   7.06   6.83   2.25   2.01   1.18   1.00  30.82  25.12
 1982 027   757   81.91  37.52    1.65  79.98   7.13   6.89   2.20   1.96   1.34   1.12  32.75  27.41
 1982 028   758   82.09  34.52    1.59  81.40   7.21   6.97   2.14   1.90   1.45   1.21  35.53  30.40
 1982 029   759   82.35  27.70    1.29  82.30   7.30   7.07   2.07   1.84   1.22   1.01  30.73  27.18
 1982 030   760   82.12  30.58    1.40  81.71   7.42   7.18   2.05   1.82   1.21   1.00  30.63  27.08
 1982 031   761   82.41  28.38    1.32  82.24   7.44   7.20   2.00   1.77   1.22   0.99  31.57  27.88
 1982 032   762   82.74  27.15    1.26  82.61   7.46   7.23   1.96   1.72   1.11   0.89  29.54  26.82
 1982 033   763   82.89  29.29    1.35  82.49   7.47   7.23   1.92   1.68   1.17   0.94  31.81  28.27
 1982 034   764   83.70  19.98    0.94  83.70   7.49   7.24   1.90   1.66   0.93   0.73  26.36  24.21
 1982 035   765   57.89  15.45    0.66  57.26   7.35   7.25   1.83   1.72   0.79   0.71  24.83  22.61
 1982 036   766   58.22  17.28    0.72  56.25   7.36   7.25   1.94   1.83   0.80   0.73  25.29  21.71
 1982 037   767   59.61  20.53    0.87  57.22   7.40   7.28   2.06   1.95   0.98   0.90  27.64  23.20
[...]
 2016 170 13318    3.90   0.00    0.00   3.80   7.19   7.19   1.04   1.04   0.00   0.00  12.03   9.03
 2016 171 13319    3.78   0.00    0.00   3.69   7.19   7.19   1.04   1.04   0.00   0.00  12.22   9.35
 2016 172 13320    3.72   0.00    0.00   3.65   7.19   7.19   1.04   1.04   0.00   0.00  10.10   7.49
 2016 173 13321    3.74   0.00    0.00   3.66   7.19   7.19   1.04   1.04   0.01   0.01  13.19  10.29
 2016 174 13322    4.29   0.00    0.00   4.19   7.19   7.19   1.04   1.04   0.03   0.03  13.92  11.64
 2016 175 13323    4.53   0.00    0.00   4.50   7.19   7.19   1.04   1.04   0.06   0.06  15.00  13.40
 2016 176 13324    4.52   0.00    0.00   4.48   7.19   7.19   1.04   1.04   0.03   0.03  13.25  11.29
 2016 177 13325    4.50   0.00    0.00   4.45   7.19   7.19   1.04   1.04   0.05   0.05  13.90  12.60
 2016 178 13326    4.53   0.00    0.00   4.50   7.19   7.19   1.04   1.04   0.05   0.05  13.66  12.88
 2016 179 13327    4.54   0.00    0.00   4.54   7.19   7.19   1.04   1.04   0.09   0.09  17.06  15.27
 2016 180 13328    4.47   0.00    0.00   4.41   7.19   7.19   1.04   1.04   0.09   0.09  17.58  15.53
 2016 181 13329    4.27   0.00    0.00   4.17   7.19   7.19   1.04   1.04   0.11   0.11  19.58  16.94
 2016 182 13330    4.02   0.00    0.00   3.92   7.19   7.19   1.04   1.04   0.11   0.11  19.26  16.58
 2016 183 13331    4.19   0.00    0.00   4.09   7.19   7.19   1.04   1.04   0.10   0.10  18.88  16.24
 2016 184 13332    4.07   0.00    0.00   3.97   7.19   7.19   1.04   1.04   0.13   0.13  20.40  17.91
 2016 185 13333    3.72   0.00    0.00   3.65   7.19   7.19   1.04   1.04   0.16   0.16  23.50  19.83
 2016 186 13334    4.20   0.00    0.00   4.10   7.19   7.19   1.04   1.04   0.18   0.18  22.99  20.64
 2016 187 13335    4.39   0.00    0.00   4.31   7.19   7.19   1.04   1.04   0.12   0.12  18.54  17.43
 2016 188 13336    4.53   0.00    0.00   4.51   7.19   7.19   1.04   1.04   0.05   0.05  14.81  12.61
 2016 189 13337    4.17   0.00    0.00   4.08   7.19   7.19   1.04   1.04   0.03   0.03  14.47  11.91
 2016 190 13338    3.69   0.00    0.00   3.64   7.19   7.19   1.04   1.04   0.03   0.03  15.73  12.22
 2016 191 13339    4.33   0.00    0.00   4.25   7.19   7.19   1.04   1.04   0.04   0.04  13.04  11.76
 2016 192 13340    4.51   0.00    0.00   4.46   7.19   7.19   1.04   1.04   0.04   0.04  14.28  12.01
 2016 193 13341    4.41   0.00    0.00   4.34   7.19   7.19   1.04   1.04   0.05   0.05  14.36  12.82
 2016 194 13342    4.54   0.00    0.00   4.54   7.19   7.19   1.04   1.04   0.06   0.06  14.94  13.66
 2016 195 13343    4.26   0.00    0.00   4.18   7.19   7.19   1.04   1.04   0.01   0.01  13.23  10.43
 2016 196 13344    4.15   0.00    0.00   4.07   7.19   7.19   1.04   1.04   0.04   0.04  14.11  12.16
 2016 197 13345    4.54   0.00    0.00   4.54   7.19   7.19   1.04   1.04   0.06   0.06  14.52  13.50
 2016 198 13346    4.45   0.00    0.00   4.39   7.19   7.19   1.04   1.04   0.01   0.01  11.03   9.41
 2016 199 13347    4.38   0.00    0.00   4.31   7.19   7.19   1.04   1.04   0.00   0.00   9.40   7.12
 2016 200 13348    3.97   0.00    0.00   3.90   7.19   7.19   1.04   1.04   0.00   0.00  10.50   8.22
 2016 201 13349    3.65   0.00    0.00   3.64   7.19   7.19   1.04   1.04   0.00   0.00  10.24   7.86
 2016 202 13350    3.78   0.00    0.00   3.74   7.19   7.19   1.04   1.04   0.00   0.00  11.10   8.18
 2016 203 13351    3.77   0.00    0.00   3.74   7.19   7.19   1.04   1.04   0.00   0.00  11.27   8.45
 2016 204 13352    3.63   0.00    0.00   3.63   7.19   7.19   1.04   1.04   0.00   0.00  12.68   8.92
 2016 205 13353    3.83   0.00    0.00   3.79   7.19   7.19   1.04   1.04   0.02   0.02  15.54  11.72
 2016 206 13354    4.11   0.00    0.00   4.05   7.19   7.19   1.04   1.04   0.03   0.03  12.53  10.87
 2016 207 13355    4.39   0.00    0.00   4.33   7.19   7.19   1.04   1.04   0.04   0.04  13.11  11.71
 2016 208 13356    4.54   0.00    0.00   4.54   7.19   7.19   1.04   1.04   0.05   0.05  14.50  12.94
 2016 209 13357    4.50   0.00    0.00   4.46   7.19   7.19   1.04   1.04   0.03   0.03  12.29  10.68
 2016 210 13358    3.80   0.00    0.00   3.78   7.19   7.19   1.04   1.04   0.00   0.00  10.89   8.19
 2016 211 13359    3.46   0.00    0.00   3.53   7.19   7.19   1.04   1.04   0.02   0.02  13.92  11.07
 2016 212 13360    4.21   0.00    0.00   4.15   7.19   7.19   1.04   1.04   0.08   0.08  16.76  14.62
 2016 213 13361    4.24   0.00    0.00   4.18   7.19   7.19   1.04   1.04   0.14   0.14  22.09  18.54
 2016 214 13362    4.01   0.00    0.00   3.97   7.19   7.19   1.04   1.04   0.10   0.10  19.62  16.27
 2016 215 13363    4.33   0.00    0.00   4.28   7.19   7.19   1.04   1.04   0.02   0.02  11.81  10.37
 2016 216 13364    4.54   0.00    0.00   4.54   7.19   7.19   1.04   1.04   0.01   0.01  11.84   9.45
 2016 217 13365    4.51   0.00    0.00   4.48   7.19   7.19   1.04   1.04   0.08   0.08  17.32  14.73
 2016 218 13366    4.49   0.00    0.00   4.46   7.19   7.19   1.04   1.04   0.11   0.11  19.07  16.71
 2016 219 13367    4.23   0.00    0.00   4.18   7.19   7.19   1.04   1.04   0.05   0.05  15.04  13.11
 2016 220 13368    4.48   0.00    0.00   4.45   7.19   7.19   1.04   1.04   0.02   0.02  13.72  11.08
 2016 221 13369    3.27   0.00    0.00   3.43   7.19   7.19   1.04   1.04   0.00   0.00  13.89  10.21
 2016 222 13370    3.50   0.00    0.00   3.59   7.19   7.19   1.04   1.04   0.04   0.04  15.75  12.80
 2016 223 13371    3.98   0.00    0.00   3.97   7.19   7.19   1.04   1.04   0.03   0.03  12.12  10.63
 2016 224 13372    4.06   0.00    0.00   4.04   7.19   7.19   1.04   1.04   0.04   0.04  14.94  12.29
 2016 225 13373    3.51   0.00    0.00   3.60   7.19   7.19   1.04   1.04   0.05   0.05  16.39  13.30
 2016 226 13374    3.54   0.00    0.00   3.63   7.19   7.19   1.04   1.04   0.07   0.07  19.12  15.21
 2016 227 13375    3.30   0.00    0.00   3.47   7.19   7.19   1.04   1.04   0.08   0.08  18.08  14.95
 2016 228 13376    3.77   0.00    0.00   3.81   7.19   7.19   1.04   1.04   0.11   0.11  20.45  16.91
 2016 229 13377    3.99   0.00    0.00   3.99   7.19   7.19   1.04   1.04   0.06   0.06  17.76  14.38
 2016 230 13378    3.27   0.00    0.00   3.46   7.19   7.19   1.04   1.04   0.08   0.08  17.30  14.84
 2016 231 13379    3.09   0.00    0.00   3.35   7.19   7.19   1.04   1.04   0.03   0.03  17.03  13.02
 2016 232 13380    3.03   0.00    0.00   3.32   7.19   7.19   1.04   1.04   0.05   0.05  16.93  13.43
 2016 233 13381    4.03   0.00    0.00   4.04   7.19   7.19   1.04   1.04   0.06   0.06  14.31  13.07
 2016 234 13382    4.14   0.00    0.00   4.14   7.19   7.19   1.04   1.04   0.00   0.00  11.05   8.82
 2016 235 13383    3.40   0.00    0.00   3.56   7.19   7.19   1.04   1.04   0.00   0.00  16.13  11.15
 2016 236 13384    3.03   0.00    0.00   3.34   7.19   7.19   1.04   1.04   0.06   0.06  19.51  15.00
 2016 237 13385    3.02   0.00    0.00   3.33   7.19   7.19   1.04   1.04   0.08   0.08  20.03  15.89
 2016 238 13386    3.17   0.00    0.00   3.43   7.19   7.19   1.04   1.04   0.09   0.09  19.10  16.00
 2016 239 13387    3.20   0.00    0.00   3.45   7.19   7.19   1.04   1.04   0.11   0.11  21.88  17.43
 2016 240 13388    4.12   0.00    0.00   4.14   7.19   7.19   1.04   1.04   0.17   0.17  23.00  20.24
 2016 241 13389    4.50   0.00    0.00   4.50   7.19   7.19   1.04   1.04   0.08   0.08  16.06  14.67
 2016 242 13390    4.54   0.00    0.00   4.54   7.19   7.19   1.04   1.04   0.08   0.08  14.88  14.30
 2016 243 13391    4.54   0.00    0.00   4.54   7.19   7.19   1.04   1.04   0.08   0.08  15.39  14.80
 2016 244 13392    4.54   0.00    0.00   4.54   7.19   7.19   1.04   1.04   0.08   0.08  16.14  14.51
 2016 245 13393    4.06   0.00    0.00   4.10   7.19   7.19   1.04   1.04   0.04   0.04  15.10  12.64
 2016 246 13394    4.31   0.00    0.00   4.31   7.19   7.19   1.04   1.04   0.03   0.03  11.53  10.62
 2016 247 13395    4.54   0.00    0.00   4.54   7.19   7.19   1.04   1.04   0.03   0.03  11.73  10.82
 2016 248 13396    4.54   0.00    0.00   4.54   7.19   7.19   1.04   1.04   0.05   0.05  13.72  12.61
 2016 249 13397    4.54   0.00    0.00   4.54   7.19   7.19   1.04   1.04   0.08   0.08  16.08  14.69
 2016 250 13398    4.54   0.00    0.00   4.54   7.19   7.19   1.04   1.04   0.05   0.05  14.71  12.58
 2016 251 13399    4.54   0.00    0.00   4.54   7.19   7.19   1.04   1.04   0.05   0.05  14.94  13.05
 2016 252 13400    4.50   0.00    0.00   4.51   7.19   7.19   1.04   1.04   0.06   0.06  15.82  13.68
 2016 253 13401    3.49   0.00    0.00   3.69   7.19   7.19   1.04   1.04   0.06   0.06  18.88  14.68
 2016 254 13402    2.84   0.00    0.00   3.29   7.19   7.19   1.04   1.04   0.13   0.13  22.78  18.37
 2016 255 13403    2.91   0.00    0.00   3.34   7.19   7.19   1.04   1.04   0.07   0.07  17.23  14.50
 2016 256 13404    4.25   0.00    0.00   4.28   7.19   7.19   1.04   1.04   0.11   0.11  18.85  16.75
 2016 257 13405    3.89   0.00    0.00   3.99   7.19   7.19   1.04   1.04   0.10   0.10  18.10  16.27
 2016 258 13406    4.02   0.00    0.00   4.09   7.19   7.19   1.04   1.04   0.06   0.06  14.81  13.19
 2016 259 13407    4.35   0.00    0.00   4.37   7.19   7.19   1.04   1.04   0.04   0.04  13.84  11.87
 2016 260 13408    3.52   0.00    0.00   3.69   7.19   7.19   1.04   1.04   0.02   0.02  16.64  12.20
 2016 261 13409    3.36   0.00    0.00   3.56   7.19   7.19   1.04   1.04   0.07   0.07  17.04  14.43
 2016 262 13410    3.50   0.00    0.00   3.65   7.19   7.19   1.04   1.04   0.08   0.08  17.48  15.15
 2016 263 13411    3.93   0.00    0.00   3.99   7.19   7.19   1.04   1.04   0.04   0.04  14.68  12.35
 2016 264 13412    4.03   0.00    0.00   4.07   7.19   7.19   1.04   1.04   0.09   0.09  17.76  15.35
 2016 265 13413    3.63   0.00    0.00   3.72   7.19   7.19   1.04   1.04   0.11   0.11  19.59  16.62
 2016 266 13414    3.01   0.00    0.00   3.24   7.19   7.19   1.04   1.04   0.14   0.14  22.40  18.79
 2016 267 13415    2.79   0.00    0.00   3.09   7.19   7.19   1.04   1.04   0.07   0.07  17.34  14.65
 2016 268 13416    3.25   0.00    0.00   3.39   7.19   7.19   1.04   1.04   0.01   0.01  14.01  10.61
 2016 269 13417    3.39   0.00    0.00   3.49   7.19   7.19   1.04   1.04   0.03   0.03  14.20  11.82
 2016 270 13418    3.35   0.00    0.00   3.45   7.19   7.19   1.04   1.04   0.03   0.03  14.96  11.84
 2016 271 13419    2.79   0.00    0.00   3.02   7.19   7.19   1.04   1.04   0.02   0.02  17.95  13.05
 2016 272 13420    2.70   0.00    0.00   2.94   7.19   7.19   1.04   1.04   0.07   0.07  19.36  15.35
 2016 273 13421    2.66   0.00    0.00   2.90   7.19   7.19   1.04   1.04   0.07   0.07  15.73  13.81
 2016 274 13422    2.77   0.00    0.00   2.96   7.19   7.19   1.04   1.04   0.06   0.06  16.62  14.03
 2016 275 13423    2.91   0.00    0.00   3.05   7.19   7.19   1.04   1.04   0.09   0.09  18.73  15.93
 2016 276 13424    3.06   0.00    0.00   3.15   7.19   7.19   1.04   1.04   0.11   0.11  19.45  16.68
 2016 277 13425    3.30   0.00    0.00   3.34   7.19   7.19   1.04   1.04   0.12   0.12  19.16  17.06
 2016 278 13426    3.81   0.00    0.00   3.80   7.19   7.19   1.04   1.04   0.11   0.11  18.34  16.42
 2016 279 13427    4.42   0.00    0.00   4.44   7.19   7.19   1.04   1.04   0.11   0.11  18.82  16.82
 2016 280 13428    3.62   0.00    0.00   3.61   7.19   7.19   1.04   1.04   0.11   0.11  19.25  16.66
 2016 281 13429    3.70   0.00    0.00   3.68   7.19   7.19   1.04   1.04   0.11   0.11  20.22  17.09
 2016 282 13430    3.41   0.00    0.00   3.40   7.19   7.19   1.04   1.04   0.07   0.07  17.34  14.45
 2016 283 13431    2.49   0.00    0.00   2.64   7.19   7.19   1.04   1.04   0.01   0.01  17.82  12.84
 2016 284 13432    2.61   0.00    0.00   2.71   7.19   7.19   1.04   1.04   0.07   0.07  20.56  15.86
 2016 285 13433    2.69   0.00    0.00   2.76   7.19   7.19   1.04   1.04   0.13   0.13  21.11  17.91
 2016 286 13434    3.63   0.00    0.00   3.59   7.19   7.19   1.04   1.04   0.16   0.16  22.36  19.47
 2016 287 13435    4.01   0.00    0.00   3.98   7.19   7.19   1.04   1.04   0.19   0.19  25.11  21.40
 2016 288 13436    3.84   0.00    0.00   3.80   7.19   7.19   1.04   1.04   0.14   0.14  21.16  18.74
 2016 289 13437    4.19   0.00    0.00   4.18   7.19   7.19   1.04   1.04   0.14   0.14  20.38  18.45
 2016 290 13438    4.54   0.00    0.00   4.54   7.19   7.19   1.04   1.04   0.19   0.19  23.94  21.19
 2016 291 13439    4.54   0.00    0.00   4.54   7.19   7.19   1.04   1.04   0.16   0.16  21.36  19.36
 2016 292 13440    4.54   0.00    0.00   4.54   7.19   7.19   1.04   1.04   0.09   0.09  16.63  15.27
 2016 293 13441    4.54   0.00    0.00   4.54   7.19   7.19   1.04   1.04   0.11   0.11  17.71  16.78
 2016 294 13442    4.54   0.00    0.00   4.54   7.19   7.19   1.04   1.04   0.11   0.11  18.17  16.42
 2016 295 13443    3.62   0.00    0.00   3.53   7.19   7.19   1.04   1.04   0.09   0.09  17.47  15.47
 2016 296 13444    2.92   0.00    0.00   2.85   7.19   7.19   1.04   1.04   0.07   0.07  19.06  15.09
 2016 297 13445    3.05   0.00    0.00   2.95   7.19   7.19   1.04   1.04   0.15   0.15  21.60  18.92
 2016 298 13446    4.27   0.00    0.00   4.26   7.19   7.19   1.04   1.04   0.14   0.14  19.15  18.29
 2016 299 13447    4.54   0.00    0.00   4.54   7.19   7.19   1.04   1.04   0.13   0.13  18.71  17.99
 2016 300 13448    4.54   0.00    0.00   4.54   7.19   7.19   1.04   1.04   0.16   0.16  21.19  19.43
 2016 301 13449    4.54   0.00    0.00   4.54   7.19   7.19   1.04   1.04   0.08   0.08  18.44  15.33
 2016 302 13450    3.91   0.00    0.00   3.83   7.19   7.19   1.04   1.04   0.06   0.06  16.33  13.68
 2016 303 13451    2.58   0.00    0.00   2.50   7.19   7.19   1.04   1.04   0.04   0.04  18.94  14.33
 2016 304 13452    2.30   0.00    0.00   2.27   7.19   7.19   1.04   1.04   0.13   0.13  22.43  18.53
 2016 305 13453    2.72   0.00    0.00   2.60   7.19   7.19   1.04   1.04   0.19   0.19  26.15  21.79
 2016 306 13454    4.27   0.00    0.00   4.26   7.19   7.19   1.04   1.04   0.17   0.17  22.46  20.35
 2016 307 13455    4.54   0.00    0.00   4.54   7.19   7.19   1.04   1.04   0.10   0.10  18.42  16.20
 2016 308 13456    2.44   0.00    0.00   2.34   7.19   7.19   1.04   1.04   0.08   0.08  21.63  16.65
 2016 309 13457    2.25   0.00    0.00   2.19   7.19   7.19   1.04   1.04   0.19   0.19  26.98  21.86
 2016 310 13458    2.27   0.00    0.00   2.20   7.19   7.19   1.04   1.04   0.19   0.19  26.01  21.46
 2016 311 13459    2.30   0.00    0.00   2.22   7.19   7.19   1.04   1.04   0.20   0.20  26.00  22.17
 2016 312 13460    2.42   0.00    0.00   2.30   7.19   7.19   1.04   1.04   0.23   0.23  28.46  24.02
 2016 313 13461    3.92   0.00    0.00   3.83   7.19   7.19   1.04   1.04   0.17   0.17  22.30  20.26
 2016 314 13462    4.25   0.00    0.00   4.23   7.19   7.19   1.04   1.04   0.19   0.19  23.85  21.67
 2016 315 13463    4.13   0.00    0.00   4.08   7.19   7.19   1.04   1.04   0.20   0.20  26.23  22.18
 2016 316 13464    2.70   0.00    0.00   2.51   7.19   7.19   1.04   1.04   0.13   0.13  20.83  18.08
 2016 317 13465    2.36   0.00    0.00   2.22   7.19   7.19   1.04   1.04   0.08   0.08  22.33  16.95
 2016 318 13466    2.29   0.00    0.00   2.16   7.19   7.19   1.04   1.04   0.16   0.16  23.70  19.79
 2016 319 13467    2.41   0.00    0.00   2.25   7.19   7.19   1.04   1.04   0.22   0.22  27.61  23.20
 2016 320 13468    3.59   0.00    0.00   3.43   7.19   7.19   1.04   1.04   0.23   0.23  27.63  23.80
 2016 321 13469    3.07   0.00    0.00   2.85   7.19   7.19   1.04   1.04   0.18   0.18  22.58  20.68
 2016 322 13470    4.47   0.00    0.00   4.51   7.19   7.19   1.04   1.04   0.10   0.10  18.76  16.04
 2016 323 13471    4.37   0.00    0.00   4.38   7.19   7.19   1.04   1.04   0.08   0.08  18.56  15.55
 2016 324 13472    3.06   0.00    0.00   2.83   7.19   7.19   1.04   1.04   0.11   0.11  21.28  17.27
 2016 325 13473    3.65   0.00    0.00   3.49   7.19   7.19   1.04   1.04   0.14   0.14  22.09  18.61
 2016 326 13474    3.52   0.00    0.00   3.34   7.19   7.19   1.04   1.04   0.11   0.11  18.92  16.59
 2016 327 13475    2.76   0.00    0.00   2.53   7.19   7.19   1.04   1.04   0.07   0.07  19.03  15.12
 2016 328 13476    2.37   0.00    0.00   2.18   7.19   7.19   1.04   1.04   0.11   0.11  24.10  18.51
 2016 329 13477    2.22   0.00    0.00   2.05   7.19   7.19   1.04   1.04   0.12   0.12  22.68  18.34
 2016 330 13478    2.34   0.00    0.00   2.13   7.19   7.19   1.04   1.04   0.17   0.17  23.29  20.31
 2016 331 13479    2.84   0.00    0.00   2.59   7.19   7.19   1.04   1.04   0.21   0.21  25.74  22.62
 2016 332 13480    4.13   0.00    0.00   4.07   7.19   7.19   1.04   1.04   0.20   0.20  24.37  22.40
 2016 333 13481    4.27   0.00    0.00   4.25   7.19   7.19   1.04   1.04   0.17   0.17  22.42  20.06
 2016 334 13482    2.55   0.00    0.00   2.31   7.19   7.19   1.04   1.04   0.14   0.14  22.10  18.59
 2016 335 13483    2.30   0.00    0.00   2.09   7.19   7.19   1.04   1.04   0.12   0.12  23.43  18.67
 2016 336 13484    2.19   0.00    0.00   2.00   7.19   7.19   1.04   1.04   0.18   0.18  24.98  21.15
 2016 337 13485    2.59   0.00    0.00   2.33   7.19   7.19   1.04   1.04   0.23   0.23  28.11  23.81
 2016 338 13486    4.34   0.00    0.00   4.34   7.19   7.19   1.04   1.04   0.20   0.20  24.37  22.40
 2016 339 13487    4.47   0.00    0.00   4.51   7.19   7.19   1.04   1.04   0.21   0.21  25.32  22.67
 2016 340 13488    2.49   0.00    0.00   2.24   7.19   7.19   1.04   1.04   0.21   0.21  26.27  22.65
 2016 341 13489    2.30   0.00    0.00   2.08   7.19   7.19   1.04   1.04   0.24   0.24  28.14  24.46
 2016 342 13490    2.52   0.00    0.00   2.26   7.19   7.19   1.04   1.04   0.20   0.20  27.39  22.44
 2016 343 13491    2.91   0.00    0.00   2.64   7.19   7.19   1.04   1.04   0.18   0.18  23.62  20.69
 2016 344 13492    2.55   0.00    0.00   2.29   7.19   7.19   1.04   1.04   0.08   0.08  21.92  16.80
 2016 345 13493    2.45   0.00    0.00   2.20   7.19   7.19   1.04   1.04   0.21   0.21  27.84  22.75
 2016 346 13494    2.53   0.00    0.00   2.27   7.19   7.19   1.04   1.04   0.22   0.22  27.30  23.47
 2016 347 13495    2.23   0.00    0.00   2.01   7.19   7.19   1.04   1.04   0.21   0.21  29.97  23.60
 2016 348 13496    3.18   0.00    0.00   2.92   7.19   7.19   1.04   1.04   0.22   0.22  26.72  23.21
 2016 349 13497    2.77   0.00    0.00   2.49   7.19   7.19   1.04   1.04   0.10   0.10  20.38  16.76
 2016 350 13498    2.18   0.00    0.00   1.97   7.19   7.19   1.04   1.04   0.09   0.09  22.30  17.11
 2016 351 13499    2.21   0.00    0.00   1.99   7.19   7.19   1.04   1.04   0.18   0.18  25.12  21.08
 2016 352 13500    2.28   0.00    0.00   2.04   7.19   7.19   1.04   1.04   0.25   0.25  29.67  25.19
 2016 353 13501    2.76   0.00    0.00   2.48   7.19   7.19   1.04   1.04   0.28   0.28  31.73  27.44
 2016 354 13502    3.96   0.00    0.00   3.85   7.19   7.19   1.04   1.04   0.23   0.23  26.83  24.19
 2016 355 13503    3.38   0.00    0.00   3.15   7.19   7.19   1.04   1.04   0.21   0.21  27.54  23.00
 2016 356 13504    2.21   0.00    0.00   1.99   7.19   7.19   1.04   1.04   0.21   0.21  27.79  23.10
 2016 357 13505    2.53   0.00    0.00   2.25   7.19   7.19   1.04   1.04   0.28   0.28  31.47  26.99
 2016 358 13506    3.86   0.00    0.00   3.71   7.19   7.19   1.04   1.04   0.24   0.24  27.34  24.98
 2016 359 13507    3.71   0.00    0.00   3.53   7.19   7.19   1.04   1.04   0.21   0.21  26.41  22.62
 2016 360 13508    3.52   0.00    0.00   3.30   7.19   7.19   1.04   1.04   0.25   0.25  28.80  24.97
 2016 361 13509    4.14   0.00    0.00   4.08   7.19   7.19   1.04   1.04   0.22   0.22  25.62  23.76
 2016 362 13510    4.54   0.00    0.00   4.54   7.19   7.19   1.04   1.04   0.19   0.19  23.50  22.14
 2016 363 13511    4.54   0.00    0.00   4.54   7.19   7.19   1.04   1.04   0.21   0.21  25.89  23.14
 2016 364 13512    3.93   0.00    0.00   3.81   7.19   7.19   1.04   1.04   0.22   0.22  25.98  23.48
 2016 365 13513    4.49   0.00    0.00   4.54   7.19   7.19   1.04   1.04   0.23   0.23  26.84  24.23
