###################################################################################################################################################################################################
# Os resultados exibe as emissões de gases de efeito estufa no modelo DSSAT, incluindo as emissões diárias e acumuladas de CO2, N2O e CH4, bem como suas equivalências em CO2.
# Cada linha de dados corresponde a um dia específico e inclui as seguintes variáveis: ano da simulação (YEAR), dia do ano (DOY), dias após a semeadura (DAS),
# emissões diárias de CO2 (CO2ED, em g[C]/ha), emissões diárias de N2O (N2OED, em g[N]/ha), emissões diárias de CH4 (CH4ED, em g[C]/ha), emissões acumuladas de CO2
# (CO2EC, em kg[C]/ha), emissões acumuladas de N2O (N2OEC, em kg[N]/ha), emissões acumuladas de CH4 (CH4EC, em kg[C]/ha), equivalente acumulado de CO2 em CO2 (CCEQC, em
# kg[CO2eq]/ha), equivalente acumulado de CO2 em N2O (NCEQC, em kg[CO2eq]/ha), equivalente acumulado de CO2 em CH4 (MCEQC, em kg[CO2eq]/ha) e equivalente total de CO2 (TCEQC, em kg[CO2eq]/ha). 
# Esses dados são essenciais para avaliar o impacto ambiental das práticas agrícolas em termos de emissões de gases de efeito estufa ao longo do tempo.
###################################################################################################################################################################################################

*GHG emissions output file

*DSSAT Cropping System Model Ver. 4.8.0.027 -release  FEB 01, 2024 15:59:10

*RUN   1        : MARANDU11299              PRFRM048 SPPI7902    1
 MODEL          : PRFRM048 - Brachiaria
 EXPERIMENT     : SPPI7902 BR
 DATA PATH      : C:/DSSAT48/Brachiaria/
 TREATMENT  1   : MARANDU11299              PRFRM048
  
!               |------ Daily (g/ha) -----|--- Cumulative (kg/ha) ---|---- Cum CO2-equiv kg[CO2eq]/ha ---|
!                    CO2      N2O      CH4      CO2      N2O      CH4      CO2      N2O      CH4    Total
!                g[C]/ha  g[N]/ha  g[C]/ha kg[C]/ha kg[N]/ha kg[C]/ha    CO2eq    CO2eq    CO2eq    CO2eq
@YEAR DOY   DAS    CO2ED    N2OED    CH4ED    CO2EC    N2OEC    CH4EC    CCEQC    NCEQC    MCEQC    TCEQC
 1980 002     1    78.70     0.00     0.00    78.70     0.00     0.00      289        0        0      289
 1980 003     2    69.43     0.00     0.00   148.14     0.00     0.00      544        0        0      544
 1980 004     3    66.84     0.00     0.00   214.97     0.00     0.00      789        0        0      789
 1980 005     4    67.84     0.00     0.00   282.82     0.00     0.00     1038        0        0     1038
 1980 006     5    67.85     0.00     0.00   350.66     0.00     0.00     1287        0        0     1287
 1980 007     6    82.63     0.00     0.00   433.30     0.00     0.00     1590        0        0     1590
 1980 008     7    79.61     0.00     0.00   512.90     0.00     0.00     1882        0        0     1882
 1980 009     8    74.63     0.00     0.00   587.53     0.00     0.00     2156        0        0     2156
 1980 010     9    67.02     0.00     0.00   654.55     0.00     0.00     2402        0        0     2402
 1980 011    10    61.64     0.00     0.00   716.19     0.00     0.00     2628        0        0     2628
 1980 012    11    57.48     0.00     0.00   773.67     0.00     0.00     2839        0        0     2839
 1980 013    12    52.13     0.00     0.00   825.81     0.00     0.00     3031        0        0     3031
 1980 014    13    48.59     0.00     0.00   874.40     0.00     0.00     3209        0        0     3209
 1980 015    14    47.04     0.00     0.00   921.44     0.00     0.00     3382        0        0     3382
 1980 016    15    44.80     0.00     0.00   966.24     0.00     0.00     3546        0        0     3546
 1980 017    16    42.30     0.00     0.00  1008.54     0.00     0.00     3701        0        0     3701
 1980 018    17    40.81     0.00     0.00  1049.35     0.00     0.00     3851        0        0     3851
 1980 019    18    40.47     0.00     0.00  1089.82     0.00     0.00     4000        0        0     4000
 1980 020    19    41.55     0.00     0.00  1131.37     0.00     0.00     4152        0        0     4152
 1980 021    20    40.26     0.00     0.00  1171.63     0.00     0.00     4300        0        0     4300
 1980 022    21    38.32     0.00     0.00  1209.95     0.00     0.00     4441        0        0     4441
 1980 023    22    37.21     0.00     0.00  1247.16     0.00     0.00     4577        0        0     4577
 1980 024    23    50.64     0.00     0.00  1297.80     0.00     0.00     4763        0        0     4763
 1980 025    24    47.92     0.00     0.00  1345.72     0.00     0.00     4939        0        0     4939
 1980 026    25    39.62     0.00     0.00  1385.34     0.00     0.00     5084        0        0     5085
 1980 027    26    36.37     0.00     0.00  1421.71     0.00     0.00     5218        1        0     5218
 1980 028    27    32.61     0.00     0.00  1454.32     0.00     0.00     5337        1        0     5338
 1980 029    28    28.56     0.00     0.00  1482.88     0.00     0.00     5442        1        0     5443
 1980 030    29    27.62     0.00     0.00  1510.50     0.00     0.00     5544        1        0     5544
 1980 031    30    27.51     0.00     0.00  1538.01     0.00     0.00     5645        1        0     5645
 1980 032    31    26.77     0.00     0.00  1564.78     0.00     0.00     5743        1        0     5744
 1980 033    32    24.74     0.00     0.00  1589.52     0.00     0.00     5834        1        0     5835
 1980 034    33    23.53     0.00     0.00  1613.05     0.00     0.00     5920        1        0     5921
 1980 035    34    22.23     0.00     0.00  1635.28     0.00     0.00     6001        1        0     6003
 1980 036    35    20.79     0.00     0.00  1656.07     0.00     0.00     6078        1        0     6079
 1980 037    36    22.52     0.00     0.00  1678.59     0.00     0.00     6160        1        0     6162
 1980 038    37    24.04     0.00     0.00  1702.63     0.00     0.00     6249        2        0     6250
 1980 039    38    24.71     0.00     0.00  1727.34     0.00     0.00     6339        2        0     6341
 1980 040    39    23.51     0.00     0.00  1750.85     0.00     0.00     6426        2        0     6427
 1980 041    40    23.02     0.00     0.00  1773.87     0.00     0.00     6510        2        0     6512
 1980 042    41    28.47     0.00     0.00  1802.34     0.00     0.00     6615        2        0     6617
 1980 043    42    26.35     0.00     0.00  1828.69     0.00     0.00     6711        2        0     6713
 1980 044    43    22.45     0.00     0.00  1851.14     0.00     0.00     6794        2        0     6796
 1980 045    44    21.30     0.00     0.00  1872.44     0.01     0.00     6872        2        0     6874
 1980 046    45    19.48     0.00     0.00  1891.92     0.01     0.00     6943        3        0     6946
 1980 047    46    20.50     0.00     0.00  1912.43     0.01     0.00     7019        3        0     7021
 1980 048    47    24.81     0.00     0.00  1937.23     0.01     0.00     7110        3        0     7112
 1980 049    48    22.60     0.00     0.00  1959.83     0.01     0.00     7193        3        0     7196
 1980 050    49    19.04     0.00     0.00  1978.87     0.01     0.00     7262        3        0     7266
 1980 051    50    16.88     0.00     0.00  1995.75     0.01     0.00     7324        3        0     7328
 1980 052    51    15.33     0.00     0.00  2011.08     0.01     0.00     7381        3        0     7384
 1980 053    52    14.02     0.00     0.00  2025.10     0.01     0.00     7432        4        0     7436
 1980 054    53    13.75     0.00     0.00  2038.86     0.01     0.00     7483        4        0     7486
 1980 055    54    13.58     0.00     0.00  2052.44     0.01     0.00     7532        4        0     7537
 1980 056    55    14.12     0.00     0.00  2066.55     0.01     0.00     7584        4        0     7589
 1980 057    56    13.91     0.00     0.00  2080.46     0.01     0.00     7635        5        0     7640
 1980 058    57    13.93     0.00     0.00  2094.39     0.01     0.00     7686        5        0     7691
 1980 059    58    13.78     0.00     0.00  2108.17     0.01     0.00     7737        5        0     7742
 1980 060    59    13.96     0.00     0.00  2122.13     0.01     0.00     7788        5        0     7794
 1980 061    60    14.20     0.00     0.00  2136.32     0.01     0.00     7840        6        0     7846
 1980 062    61    14.14     0.00     0.00  2150.46     0.01     0.00     7892        6        0     7898
 1980 063    62    19.63     0.00     0.00  2170.09     0.01     0.00     7964        6        0     7970
 1980 064    63    18.96     0.00     0.00  2189.05     0.01     0.00     8034        6        0     8040
 1980 065    64    16.02     0.00     0.00  2205.07     0.01     0.00     8093        7        0     8099
 1980 066    65    16.40     0.00     0.00  2221.47     0.02     0.00     8153        7        0     8160
 1980 067    66    15.52     0.00     0.00  2236.99     0.02     0.00     8210        7        0     8217
 1980 068    67    14.99     0.00     0.00  2251.98     0.02     0.00     8265        8        0     8272
 1980 069    68    14.40     0.00     0.00  2266.38     0.02     0.00     8318        8        0     8325
 1980 070    69    14.20     0.00     0.00  2280.58     0.02     0.00     8370        8        0     8378
 1980 071    70    13.77     0.00     0.00  2294.35     0.02     0.00     8420        8        0     8429
 1980 072    71    13.02     0.00     0.00  2307.37     0.02     0.00     8468        9        0     8477
 1980 073    72    15.85     0.00     0.00  2323.22     0.02     0.00     8526        9        0     8535
 1980 074    73    14.90     0.00     0.00  2338.12     0.02     0.00     8581        9        0     8590
 1980 075    74    13.08     0.00     0.00  2351.20     0.02     0.00     8629       10        0     8639
 1980 076    75    11.91     0.00     0.00  2363.11     0.02     0.00     8673       10        0     8683
 1980 077    76    11.71     0.00     0.00  2374.82     0.02     0.00     8716       11        0     8726
 1980 078    77    11.71     0.00     0.00  2386.53     0.02     0.00     8759       11        0     8770
 1980 079    78    11.90     0.00     0.00  2398.43     0.03     0.00     8802       12        0     8814
 1980 080    79    12.03     0.00     0.00  2410.46     0.03     0.00     8846       13        0     8859
 1980 081    80    12.24     0.00     0.00  2422.70     0.03     0.00     8891       14        0     8905
 1980 082    81    12.47     0.00     0.00  2435.17     0.03     0.00     8937       14        0     8951
 1980 083    82    12.67     0.00     0.00  2447.84     0.03     0.00     8984       15        0     8999
 1980 084    83    15.01     0.00     0.00  2462.85     0.03     0.00     9039       16        0     9054
 1980 085    84    17.45     0.00     0.00  2480.30     0.04     0.00     9103       16        0     9119
 1980 086    85    16.60     0.00     0.00  2496.90     0.04     0.00     9164       17        0     9180
 1980 087    86    13.97     0.00     0.00  2510.87     0.04     0.00     9215       17        0     9232
 1980 088    87    13.63     0.00     0.00  2524.50     0.04     0.00     9265       18        0     9283
 1980 089    88    12.24     0.00     0.00  2536.74     0.04     0.00     9310       18        0     9328
 1980 090    89    11.06     0.00     0.00  2547.80     0.04     0.00     9350       19        0     9369
 1980 091    90    10.09     0.00     0.00  2557.89     0.04     0.00     9387       20        0     9407
 1980 092    91     9.38     0.00     0.00  2567.27     0.04     0.00     9422       20        0     9442
 1980 093    92     8.98     0.00     0.00  2576.25     0.05     0.00     9455       21        0     9476
 1980 094    93     8.74     0.00     0.00  2584.99     0.05     0.00     9487       22        0     9509
 1980 095    94     8.63     0.00     0.00  2593.62     0.05     0.00     9519       23        0     9542
 1980 096    95     8.98     0.00     0.00  2602.60     0.05     0.00     9552       24        0     9576
 1980 097    96     9.25     0.00     0.00  2611.85     0.05     0.00     9585       26        0     9611
 1980 098    97     9.33     0.00     0.00  2621.18     0.06     0.00     9620       27        0     9646
 1980 099    98     9.19     0.00     0.00  2630.37     0.06     0.00     9653       28        0     9681
 1980 100    99    10.60     0.00     0.00  2640.97     0.06     0.00     9692       29        0     9721
 1980 101   100    11.27     0.00     0.00  2652.24     0.06     0.00     9734       30        0     9763
 1980 102   101    10.75     0.00     0.00  2662.99     0.06     0.00     9773       30        0     9803
 1980 103   102    10.10     0.00     0.00  2673.10     0.07     0.00     9810       31        0     9841
 1980 104   103     9.45     0.00     0.00  2682.55     0.07     0.00     9845       31        0     9876
 1980 105   104     9.70     0.00     0.00  2692.25     0.07     0.00     9881       32        0     9912
 1980 106   105     8.46     0.00     0.00  2700.70     0.07     0.00     9912       33        0     9944
 1980 107   106     7.40     0.00     0.00  2708.10     0.07     0.00     9939       34        0     9972
 1980 108   107     6.45     0.00     0.00  2714.55     0.07     0.00     9962       35        0     9997
 1980 109   108     6.49     0.00     0.00  2721.04     0.08     0.00     9986       36        0    10022
 1980 110   109     7.00     0.00     0.00  2728.04     0.08     0.00    10012       36        0    10048
 1980 111   110     7.24     0.00     0.00  2735.28     0.08     0.00    10038       36        0    10075
 1980 112   111     7.80     0.00     0.00  2743.08     0.08     0.00    10067       37        0    10104
 1980 113   112     8.96     0.00     0.00  2752.05     0.08     0.00    10100       38        0    10138
 1980 114   113     9.26     0.00     0.00  2761.31     0.08     0.00    10134       39        0    10173
 1980 115   114     9.98     0.00     0.00  2771.29     0.09     0.00    10171       40        0    10211
 1980 116   115    11.24     0.00     0.00  2782.53     0.09     0.00    10212       41        0    10253
 1980 117   116    11.29     0.00     0.00  2793.83     0.09     0.00    10253       42        0    10295
 1980 118   117    10.47     0.00     0.00  2804.30     0.09     0.00    10292       43        0    10335
 1980 119   118     9.97     0.00     0.00  2814.27     0.10     0.00    10328       45        0    10373
 1980 120   119     9.56     0.00     0.00  2823.83     0.10     0.00    10363       46        0    10410
 1980 121   120     9.19     0.00     0.00  2833.02     0.10     0.00    10397       48        0    10445
 1980 122   121     8.61     0.00     0.00  2841.63     0.11     0.00    10429       49        0    10478
 1980 123   122     7.93     0.00     0.00  2849.56     0.11     0.00    10458       51        0    10509
 1980 124   123     6.90     0.00     0.00  2856.46     0.11     0.00    10483       53        0    10536
 1980 125   124     5.92     0.00     0.00  2862.38     0.12     0.00    10505       54        0    10559
 1980 126   125     5.13     0.00     0.00  2867.51     0.12     0.00    10524       56        0    10580
 1980 127   126     4.81     0.00     0.00  2872.32     0.12     0.00    10541       58        0    10599
 1980 128   127     4.90     0.00     0.00  2877.21     0.13     0.00    10559       60        0    10619
 1980 129   128     5.13     0.00     0.00  2882.34     0.13     0.00    10578       62        0    10640
 1980 130   129     5.26     0.00     0.00  2887.61     0.14     0.00    10598       64        0    10661
 1980 131   130     5.98     0.00     0.00  2893.59     0.14     0.00    10619       65        0    10685
 1980 132   131     6.48     0.00     0.00  2900.07     0.14     0.00    10643       67        0    10710
 1980 133   132     6.71     0.00     0.00  2906.78     0.15     0.00    10668       69        0    10737
 1980 134   133     7.20     0.00     0.00  2913.98     0.15     0.00    10694       71        0    10765
 1980 135   134     7.73     0.00     0.00  2921.71     0.15     0.00    10723       72        0    10795
 1980 136   135     8.17     0.00     0.00  2929.88     0.16     0.00    10753       74        0    10827
 1980 137   136     8.31     0.00     0.00  2938.19     0.16     0.00    10783       76        0    10860
 1980 138   137     8.40     0.00     0.00  2946.58     0.17     0.00    10814       78        0    10892
 1980 139   138     7.71     0.00     0.00  2954.29     0.17     0.00    10842       80        0    10923
 1980 140   139     7.16     0.00     0.00  2961.45     0.18     0.00    10869       83        0    10951
 1980 141   140     6.72     0.00     0.00  2968.17     0.18     0.00    10893       85        0    10978
 1980 142   141     6.57     0.00     0.00  2974.73     0.19     0.00    10917       87        0    11004
 1980 143   142     6.88     0.00     0.00  2981.61     0.19     0.00    10943       89        0    11031
 1980 144   143     7.33     0.00     0.00  2988.94     0.19     0.00    10969       89        0    11059
 1980 145   144     7.47     0.00     0.00  2996.41     0.20     0.00    10997       92        0    11088
 1980 146   145     7.10     0.00     0.00  3003.50     0.20     0.00    11023       94        0    11117
 1980 147   146     6.67     0.00     0.00  3010.17     0.20     0.00    11047       96        0    11143
 1980 148   147     6.57     0.00     0.00  3016.74     0.21     0.00    11071       98        0    11170
 1980 149   148     6.71     0.01     0.00  3023.45     0.21     0.00    11096      101        0    11197
 1980 150   149     7.00     0.01     0.00  3030.45     0.22     0.00    11122      103        0    11225
 1980 151   150     7.58     0.00     0.00  3038.03     0.22     0.00    11150      105        0    11254
 1980 152   151     7.21     0.00     0.00  3045.24     0.23     0.00    11176      105        0    11281
 1980 153   152     7.09     0.00     0.00  3052.33     0.23     0.00    11202      106        0    11308
 1980 154   153     6.55     0.00     0.00  3058.88     0.23     0.00    11226      106        0    11332
 1980 155   154     6.10     0.00     0.00  3064.98     0.23     0.00    11248      108        0    11357
 1980 156   155     5.84     0.00     0.00  3070.82     0.24     0.00    11270      110        0    11380
 1980 157   156     5.47     0.00     0.00  3076.30     0.24     0.00    11290      112        0    11402
 1980 158   157     5.29     0.00     0.00  3081.58     0.24     0.00    11309      114        0    11424
 1980 159   158     5.27     0.00     0.00  3086.85     0.25     0.00    11329      117        0    11445
 1980 160   159     5.74     0.01     0.00  3092.59     0.25     0.00    11350      119        0    11469
 1980 161   160     6.13     0.01     0.00  3098.72     0.26     0.00    11372      122        0    11494
 1980 162   161     7.17     0.00     0.00  3105.90     0.26     0.00    11399      124        0    11522
 1980 163   162     6.89     0.00     0.00  3112.79     0.27     0.00    11424      124        0    11548
 1980 164   163     6.65     0.00     0.00  3119.44     0.27     0.00    11448      125        0    11573
 1980 165   164     6.42     0.00     0.00  3125.86     0.27     0.00    11472      125        0    11597
 1980 166   165     5.92     0.00     0.00  3131.79     0.27     0.00    11494      125        0    11619
 1980 167   166     5.37     0.00     0.00  3137.15     0.27     0.00    11513      126        0    11639
 1980 168   167     5.32     0.00     0.00  3142.48     0.27     0.00    11533      128        0    11661
 1980 169   168     5.14     0.00     0.00  3147.62     0.28     0.00    11552      130        0    11682
 1980 170   169     5.23     0.00     0.00  3152.85     0.28     0.00    11571      132        0    11703
 1980 171   170     5.61     0.00     0.00  3158.46     0.29     0.00    11592      134        0    11726
 1980 172   171     5.64     0.00     0.00  3164.10     0.29     0.00    11612      135        0    11747
 1980 173   172     5.84     0.00     0.00  3169.94     0.29     0.00    11634      136        0    11770
 1980 174   173     5.68     0.00     0.00  3175.62     0.30     0.00    11655      138        0    11793
 1980 175   174     5.34     0.00     0.00  3180.96     0.30     0.00    11674      141        0    11815
 1980 176   175     5.06     0.01     0.00  3186.02     0.31     0.00    11693      143        0    11836
 1980 177   176     5.03     0.00     0.00  3191.05     0.31     0.00    11711      144        0    11855
 1980 178   177     4.71     0.00     0.00  3195.76     0.31     0.00    11728      145        0    11873
 1980 179   178     4.73     0.00     0.00  3200.49     0.31     0.00    11746      147        0    11892
 1980 180   179     4.71     0.01     0.00  3205.20     0.32     0.00    11763      149        0    11912
 1980 181   180     4.68     0.01     0.00  3209.89     0.32     0.00    11780      151        0    11932
 1980 182   181     5.09     0.01     0.00  3214.98     0.33     0.00    11799      154        0    11953
 1980 183   182     5.02     0.00     0.00  3220.00     0.33     0.00    11817      154        0    11972
 1980 184   183     4.98     0.00     0.00  3224.99     0.33     0.00    11836      155        0    11991
 1980 185   184     5.06     0.01     0.00  3230.05     0.34     0.00    11854      157        0    12012
 1980 186   185     4.75     0.01     0.00  3234.80     0.34     0.00    11872      160        0    12032
 1980 187   186     4.49     0.01     0.00  3239.29     0.35     0.00    11888      162        0    12050
 1980 188   187     4.34     0.01     0.00  3243.64     0.35     0.00    11904      165        0    12069
 1980 189   188     4.75     0.01     0.00  3248.38     0.36     0.00    11922      167        0    12089
 1980 190   189     5.06     0.00     0.00  3253.45     0.36     0.00    11940      168        0    12108
 1980 191   190     5.10     0.00     0.00  3258.55     0.36     0.00    11959      168        0    12127
 1980 192   191     5.06     0.00     0.00  3263.61     0.36     0.00    11977      169        0    12146
 1980 193   192     5.22     0.01     0.00  3268.83     0.37     0.00    11997      171        0    12168
 1980 194   193     5.02     0.01     0.00  3273.85     0.37     0.00    12015      174        0    12189
 1980 195   194     4.90     0.01     0.00  3278.75     0.38     0.00    12033      176        0    12209
 1980 196   195     4.89     0.01     0.00  3283.64     0.38     0.00    12051      179        0    12230
 1980 197   196     4.84     0.01     0.00  3288.48     0.39     0.00    12069      181        0    12250
 1980 198   197     4.70     0.01     0.00  3293.18     0.39     0.00    12086      184        0    12270
 1980 199   198     4.70     0.01     0.00  3297.88     0.40     0.00    12103      187        0    12290
 1980 200   199     4.75     0.01     0.00  3302.63     0.41     0.00    12121      190        0    12311
 1980 201   200     4.73     0.01     0.00  3307.35     0.41     0.00    12138      193        0    12331
 1980 202   201     5.01     0.01     0.00  3312.36     0.42     0.00    12156      196        0    12353
 1980 203   202     5.63     0.01     0.00  3318.00     0.43     0.00    12177      199        0    12376
 1980 204   203     5.86     0.01     0.00  3323.85     0.43     0.00    12199      202        0    12400
 1980 205   204     5.55     0.01     0.00  3329.41     0.44     0.00    12219      204        0    12423
 1980 206   205     5.33     0.01     0.00  3334.74     0.44     0.00    12238      207        0    12446
 1980 207   206     5.01     0.01     0.00  3339.74     0.45     0.00    12257      210        0    12467
 1980 208   207     5.43     0.01     0.00  3345.17     0.45     0.00    12277      213        0    12489
 1980 209   208     5.41     0.00     0.00  3350.58     0.46     0.00    12297      213        0    12510
 1980 210   209     5.46     0.00     0.00  3356.04     0.46     0.00    12317      215        0    12532
 1980 211   210     5.36     0.01     0.00  3361.40     0.46     0.00    12336      218        0    12554
 1980 212   211     5.09     0.01     0.00  3366.49     0.47     0.00    12355      220        0    12575
 1980 213   212     4.63     0.01     0.00  3371.12     0.48     0.00    12372      223        0    12595
 1980 214   213     4.27     0.01     0.00  3375.39     0.48     0.00    12388      225        0    12613
 1980 215   214     4.24     0.01     0.00  3379.63     0.49     0.00    12403      228        0    12631
 1980 216   215     4.32     0.01     0.00  3383.94     0.49     0.00    12419      231        0    12650
 1980 217   216     4.55     0.01     0.00  3388.50     0.50     0.00    12436      234        0    12669
 1980 218   217     5.32     0.00     0.00  3393.82     0.50     0.00    12455      234        0    12690
 1980 219   218     5.06     0.00     0.00  3398.88     0.50     0.00    12474      235        0    12709
 1980 220   219     4.83     0.00     0.00  3403.71     0.50     0.00    12492      235        0    12727
 1980 221   220     5.13     0.01     0.00  3408.84     0.51     0.00    12510      238        0    12748
 1980 222   221     5.01     0.01     0.00  3413.85     0.51     0.00    12529      240        0    12769
 1980 223   222     4.99     0.01     0.00  3418.85     0.52     0.00    12547      243        0    12790
 1980 224   223     5.15     0.01     0.00  3424.00     0.52     0.00    12566      245        0    12811
 1980 225   224     5.12     0.01     0.00  3429.12     0.53     0.00    12585      248        0    12833
 1980 226   225     4.82     0.01     0.00  3433.93     0.54     0.00    12603      251        0    12854
 1980 227   226     4.71     0.01     0.00  3438.64     0.54     0.00    12620      254        0    12874
 1980 228   227     4.65     0.01     0.00  3443.30     0.55     0.00    12637      257        0    12894
 1980 229   228     4.65     0.01     0.00  3447.94     0.56     0.00    12654      260        0    12914
 1980 230   229     5.55     0.01     0.00  3453.49     0.56     0.00    12674      262        0    12937
 1980 231   230     6.09     0.00     0.00  3459.58     0.56     0.00    12697      263        0    12960
 1980 232   231     6.14     0.01     0.00  3465.72     0.57     0.00    12719      266        0    12985
 1980 233   232     6.10     0.01     0.00  3471.81     0.57     0.00    12742      268        0    13010
 1980 234   233     5.63     0.01     0.00  3477.45     0.58     0.00    12762      271        0    13033
 1980 235   234     5.11     0.01     0.00  3482.56     0.58     0.00    12781      273        0    13054
 1980 236   235     4.82     0.01     0.00  3487.38     0.59     0.00    12799      276        0    13074
 1980 237   236     4.50     0.01     0.00  3491.88     0.59     0.00    12815      278        0    13094
 1980 238   237     4.22     0.01     0.00  3496.11     0.60     0.00    12831      281        0    13112
 1980 239   238     4.22     0.01     0.00  3500.33     0.61     0.00    12846      284        0    13130
 1980 240   239     3.96     0.01     0.00  3504.28     0.61     0.00    12861      287        0    13148
 1980 241   240     3.83     0.01     0.00  3508.11     0.62     0.00    12875      290        0    13165
 1980 242   241     3.81     0.01     0.00  3511.92     0.63     0.00    12889      293        0    13182
 1980 243   242     4.01     0.01     0.00  3515.93     0.63     0.00    12903      296        0    13199
 1980 244   243     4.17     0.01     0.00  3520.10     0.64     0.00    12919      299        0    13217
 1980 245   244     4.52     0.01     0.00  3524.61     0.64     0.00    12935      302        0    13237
 1980 246   245     4.84     0.01     0.00  3529.45     0.65     0.00    12953      304        0    13257
 1980 247   246     5.18     0.01     0.00  3534.63     0.66     0.00    12972      307        0    13279
 1980 248   247     5.16     0.01     0.00  3539.79     0.66     0.00    12991      309        0    13300
 1980 249   248     4.85     0.01     0.00  3544.64     0.67     0.00    13009      312        0    13320
 1980 250   249     4.59     0.01     0.00  3549.23     0.67     0.00    13026      314        0    13340
 1980 251   250     4.55     0.01     0.00  3553.77     0.68     0.00    13042      316        0    13359
 1980 252   251     4.84     0.01     0.00  3558.61     0.68     0.00    13060      319        0    13379
 1980 253   252     4.73     0.01     0.00  3563.35     0.69     0.00    13077      321        0    13399
 1980 254   253     5.02     0.00     0.00  3568.37     0.69     0.00    13096      324        0    13419
 1980 255   254     4.99     0.00     0.00  3573.36     0.70     0.00    13114      326        0    13440
 1980 256   255     4.95     0.00     0.00  3578.31     0.70     0.00    13132      328        0    13461
 1980 257   256     4.75     0.01     0.00  3583.07     0.71     0.00    13150      331        0    13480
 1980 258   257     5.13     0.01     0.00  3588.20     0.71     0.00    13169      333        0    13502
 1980 259   258     5.46     0.01     0.00  3593.66     0.72     0.00    13189      335        0    13524
 1980 260   259     5.60     0.00     0.00  3599.26     0.72     0.00    13209      338        0    13547
 1980 261   260     5.11     0.00     0.00  3604.37     0.73     0.00    13228      340        0    13568
 1980 262   261     4.77     0.00     0.00  3609.15     0.73     0.00    13246      342        0    13588
 1980 263   262     4.29     0.00     0.00  3613.43     0.74     0.00    13261      344        0    13606
 1980 264   263     3.99     0.00     0.00  3617.43     0.74     0.00    13276      347        0    13623
 1980 265   264     4.20     0.00     0.00  3621.62     0.75     0.00    13291      349        0    13640
 1980 266   265     4.42     0.00     0.00  3626.04     0.75     0.00    13308      351        0    13659
 1980 267   266     4.46     0.00     0.00  3630.50     0.76     0.00    13324      354        0    13677
 1980 268   267     4.48     0.01     0.00  3634.98     0.76     0.00    13340      356        0    13696
 1980 269   268     4.43     0.01     0.00  3639.41     0.77     0.00    13357      358        0    13715
 1980 270   269     4.22     0.01     0.00  3643.63     0.77     0.00    13372      361        0    13733
 1980 271   270     4.27     0.01     0.00  3647.90     0.78     0.00    13388      363        0    13751
 1980 272   271     4.28     0.00     0.00  3652.18     0.78     0.00    13404      365        0    13769
 1980 273   272     4.08     0.00     0.00  3656.26     0.79     0.00    13418      368        0    13786
 1980 274   273     4.30     0.00     0.00  3660.57     0.79     0.00    13434      370        0    13804
 1980 275   274     4.75     0.00     0.00  3665.32     0.79     0.00    13452      372        0    13823
 1980 276   275     5.18     0.00     0.00  3670.50     0.80     0.00    13471      374        0    13844
 1980 277   276     6.20     0.00     0.00  3676.70     0.80     0.00    13493      374        0    13868
 1980 278   277     6.29     0.00     0.00  3682.99     0.80     0.00    13517      375        0    13892
 1980 279   278     5.72     0.00     0.00  3688.71     0.80     0.00    13538      376        0    13913
 1980 280   279     5.10     0.00     0.00  3693.81     0.81     0.00    13556      378        0    13934
 1980 281   280     4.58     0.00     0.00  3698.39     0.81     0.00    13573      379        0    13952
 1980 282   281     4.28     0.00     0.00  3702.67     0.81     0.00    13589      381        0    13970
 1980 283   282     4.09     0.00     0.00  3706.76     0.82     0.00    13604      383        0    13987
 1980 284   283     4.36     0.00     0.00  3711.12     0.82     0.00    13620      385        0    14005
 1980 285   284     4.47     0.00     0.00  3715.59     0.83     0.00    13636      387        0    14023
 1980 286   285     4.60     0.00     0.00  3720.19     0.83     0.00    13653      389        0    14042
 1980 287   286     4.63     0.00     0.00  3724.82     0.83     0.00    13670      390        0    14061
 1980 288   287     4.86     0.00     0.00  3729.68     0.84     0.00    13688      392        0    14080
 1980 289   288     5.69     0.00     0.00  3735.36     0.84     0.00    13709      394        0    14103
 1980 290   289     5.94     0.00     0.00  3741.31     0.85     0.00    13731      396        0    14126
 1980 291   290     6.33     0.00     0.00  3747.64     0.85     0.00    13754      397        0    14151
 1980 292   291     6.77     0.00     0.00  3754.41     0.85     0.00    13779      399        0    14178
 1980 293   292     6.97     0.00     0.00  3761.38     0.86     0.00    13804      401        0    14205
 1980 294   293     6.84     0.00     0.00  3768.22     0.86     0.00    13829      403        0    14232
 1980 295   294     6.80     0.00     0.00  3775.02     0.86     0.00    13854      405        0    14259
 1980 296   295     6.42     0.00     0.00  3781.44     0.87     0.00    13878      407        0    14285
 1980 297   296     6.17     0.00     0.00  3787.62     0.87     0.00    13901      408        0    14309
 1980 298   297     5.59     0.00     0.00  3793.20     0.88     0.00    13921      410        0    14331
 1980 299   298     5.09     0.00     0.00  3798.29     0.88     0.00    13940      412        0    14352
 1980 300   299     4.98     0.00     0.00  3803.27     0.88     0.00    13958      414        0    14372
 1980 301   300     5.23     0.00     0.00  3808.50     0.89     0.00    13977      416        0    14393
 1980 302   301     6.22     0.00     0.00  3814.71     0.89     0.00    14000      417        0    14417
 1980 303   302     6.53     0.00     0.00  3821.25     0.90     0.00    14024      419        0    14443
 1980 304   303     8.52     0.00     0.00  3829.77     0.90     0.00    14055      420        0    14475
 1980 305   304     8.85     0.00     0.00  3838.62     0.90     0.00    14088      420        0    14508
 1980 306   305     8.38     0.00     0.00  3847.00     0.90     0.00    14118      421        0    14539
 1980 307   306     8.75     0.00     0.00  3855.75     0.90     0.00    14151      423        0    14573
 1980 308   307     8.10     0.00     0.00  3863.85     0.91     0.00    14180      425        0    14605
 1980 309   308     7.96     0.00     0.00  3871.81     0.91     0.00    14210      426        0    14636
 1980 310   309     8.14     0.00     0.00  3879.95     0.91     0.00    14239      428        0    14668
 1980 311   310    10.66     0.00     0.00  3890.61     0.92     0.00    14279      430        0    14709
 1980 312   311    11.05     0.00     0.00  3901.67     0.92     0.00    14319      432        0    14751
 1980 313   312    10.56     0.00     0.00  3912.23     0.93     0.00    14358      434        0    14792
 1980 314   313    10.34     0.00     0.00  3922.57     0.93     0.00    14396      436        0    14831
 1980 315   314     9.29     0.00     0.00  3931.87     0.93     0.00    14430      436        0    14866
 1980 316   315     8.04     0.00     0.00  3939.91     0.93     0.00    14459      437        0    14896
 1980 317   316     8.66     0.00     0.00  3948.56     0.93     0.00    14491      437        0    14929
 1980 318   317     9.10     0.00     0.00  3957.66     0.94     0.00    14525      439        0    14964
 1980 319   318     8.85     0.00     0.00  3966.51     0.94     0.00    14557      440        0    14997
 1980 320   319    10.18     0.00     0.00  3976.69     0.94     0.00    14594      442        0    15037
 1980 321   320    11.19     0.00     0.00  3987.88     0.95     0.00    14636      443        0    15079
 1980 322   321    11.37     0.00     0.00  3999.24     0.95     0.00    14677      444        0    15121
 1980 323   322    13.24     0.00     0.00  4012.48     0.95     0.00    14726      445        0    15171
 1980 324   323    14.11     0.00     0.00  4026.59     0.95     0.00    14778      447        0    15224
 1980 325   324    13.95     0.00     0.00  4040.54     0.96     0.00    14829      449        0    15277
 1980 326   325    13.88     0.00     0.00  4054.42     0.96     0.00    14880      451        0    15331
 1980 327   326    13.54     0.00     0.00  4067.96     0.97     0.00    14929      453        0    15382
 1980 328   327    12.45     0.00     0.00  4080.41     0.97     0.00    14975      453        0    15429
 1980 329   328    11.87     0.00     0.00  4092.28     0.97     0.00    15019      454        0    15472
 1980 330   329    13.48     0.00     0.00  4105.77     0.97     0.00    15068      455        0    15523
 1980 331   330    14.08     0.00     0.00  4119.84     0.98     0.00    15120      457        0    15577
 1980 332   331    13.95     0.00     0.00  4133.79     0.98     0.00    15171      459        0    15630
 1980 333   332    13.71     0.00     0.00  4147.50     0.99     0.00    15221      461        0    15683
 1980 334   333    13.79     0.00     0.00  4161.29     0.99     0.00    15272      464        0    15735
 1980 335   334    12.55     0.00     0.00  4173.84     0.99     0.00    15318      464        0    15782
 1980 336   335    12.96     0.00     0.00  4186.80     0.99     0.00    15366      464        0    15830
 1980 337   336    15.17     0.00     0.00  4201.97     0.99     0.00    15421      465        0    15886
 1980 338   337    15.71     0.00     0.00  4217.68     0.99     0.00    15479      466        0    15944
 1980 339   338    15.59     0.00     0.00  4233.28     1.00     0.00    15536      466        0    16002
 1980 340   339    15.54     0.00     0.00  4248.82     1.00     0.00    15593      467        0    16060
 1980 341   340    17.28     0.00     0.00  4266.10     1.00     0.00    15657      468        0    16124
 1980 342   341    18.61     0.00     0.00  4284.71     1.00     0.00    15725      470        0    16195
 1980 343   342    19.14     0.00     0.00  4303.85     1.01     0.00    15795      472        0    16267
 1980 344   343    19.82     0.00     0.00  4323.67     1.01     0.00    15868      474        0    16342
 1980 345   344    20.92     0.00     0.00  4344.59     1.02     0.00    15945      477        0    16421
 1980 346   345    22.07     0.00     0.00  4366.66     1.02     0.00    16026      479        0    16504
 1980 347   346    24.01     0.00     0.00  4390.67     1.02     0.00    16114      480        0    16593
 1980 348   347    23.47     0.00     0.00  4414.13     1.03     0.00    16200      480        0    16680
 1980 349   348    22.59     0.00     0.00  4436.72     1.03     0.00    16283      480        0    16763
 1980 350   349    21.53     0.00     0.00  4458.25     1.03     0.00    16362      481        0    16843
 1980 351   350    21.74     0.00     0.00  4479.99     1.03     0.00    16442      481        0    16923
 1980 352   351    24.08     0.00     0.00  4504.07     1.03     0.00    16530      483        0    17013
 1980 353   352    25.04     0.00     0.00  4529.12     1.04     0.00    16622      485        0    17107
 1980 354   353    19.87     0.00     0.00  4548.99     1.04     0.00    16695      485        0    17180
 1980 355   354    19.20     0.00     0.00  4568.18     1.04     0.00    16765      485        0    17250
 1980 356   355    21.56     0.00     0.00  4589.74     1.04     0.00    16844      486        0    17331
 1980 357   356    22.19     0.00     0.00  4611.93     1.04     0.00    16926      488        0    17414
 1980 358   357    22.34     0.00     0.00  4634.28     1.05     0.00    17008      490        0    17498
 1980 359   358    22.21     0.00     0.00  4656.48     1.05     0.00    17089      492        0    17582
 1980 360   359    22.56     0.00     0.00  4679.04     1.06     0.00    17172      495        0    17667
 1980 361   360    23.29     0.00     0.00  4702.33     1.06     0.00    17258      497        0    17754
 1980 362   361    24.28     0.00     0.00  4726.61     1.07     0.00    17347      499        0    17845
 1980 363   362    24.94     0.00     0.00  4751.56     1.07     0.00    17438      501        0    17939
 1980 364   363    25.16     0.00     0.00  4776.72     1.07     0.00    17531      503        0    18033
 1980 365   364    25.17     0.00     0.00  4801.89     1.08     0.00    17623      505        0    18128
 1980 366   365    25.01     0.00     0.00  4826.90     1.08     0.00    17715      507        0    18221
 1981 001   366    24.92     0.00     0.00  4851.82     1.09     0.00    17806      508        0    18315
 1981 002   367    25.61     0.00     0.00  4877.43     1.09     0.00    17900      510        0    18410
 1981 003   368    26.10     0.00     0.00  4903.53     1.09     0.00    17996      512        0    18508
 1981 004   369    27.18     0.00     0.00  4930.71     1.09     0.00    18096      512        0    18608
 1981 005   370    30.19     0.00     0.00  4960.89     1.09     0.00    18206      513        0    18719
 1981 006   371    33.98     0.00     0.00  4994.88     1.10     0.00    18331      514        0    18845
 1981 007   372    34.83     0.00     0.00  5029.71     1.10     0.00    18459      515        0    18974
 1981 008   373    35.18     0.00     0.00  5064.89     1.10     0.00    18588      517        0    19105
 1981 009   374    34.37     0.00     0.00  5099.26     1.11     0.00    18714      519        0    19233
 1981 010   375    30.76     0.00     0.00  5130.02     1.11     0.00    18827      520        0    19348
 1981 011   376    27.20     0.00     0.00  5157.22     1.12     0.00    18927      522        0    19449
 1981 012   377    24.59     0.00     0.00  5181.81     1.12     0.00    19017      524        0    19541
 1981 013   378    26.58     0.00     0.00  5208.39     1.12     0.00    19115      524        0    19639
 1981 014   379    25.80     0.00     0.00  5234.20     1.12     0.00    19210      524        0    19734
 1981 015   380    29.12     0.00     0.00  5263.32     1.12     0.00    19316      525        0    19841
 1981 016   381    30.40     0.00     0.00  5293.72     1.12     0.00    19428      526        0    19954
 1981 017   382    29.44     0.00     0.00  5323.16     1.13     0.00    19536      528        0    20064
 1981 018   383    28.09     0.00     0.00  5351.24     1.13     0.00    19639      529        0    20168
 1981 019   384    28.83     0.00     0.00  5380.07     1.13     0.00    19745      530        0    20275
 1981 020   385    28.90     0.00     0.00  5408.97     1.14     0.00    19851      532        0    20382
 1981 021   386    28.62     0.00     0.00  5437.58     1.14     0.00    19956      533        0    20489
 1981 022   387    27.27     0.00     0.00  5464.86     1.14     0.00    20056      534        0    20590
 1981 023   388    24.28     0.00     0.00  5489.14     1.14     0.00    20145      536        0    20681
 1981 024   389    21.41     0.00     0.00  5510.55     1.15     0.00    20224      537        0    20761
 1981 025   390    21.81     0.00     0.00  5532.36     1.15     0.00    20304      539        0    20843
 1981 026   391    21.70     0.00     0.00  5554.07     1.15     0.00    20383      540        0    20924
 1981 027   392    21.26     0.00     0.00  5575.32     1.16     0.00    20461      542        0    21003
 1981 028   393    19.87     0.00     0.00  5595.20     1.16     0.00    20534      543        0    21077
 1981 029   394    20.80     0.00     0.00  5616.00     1.16     0.00    20611      544        0    21155
 1981 030   395    25.56     0.00     0.00  5641.56     1.17     0.00    20705      546        0    21250
 1981 031   396    24.11     0.00     0.00  5665.67     1.17     0.00    20793      547        0    21340
 1981 032   397    21.17     0.00     0.00  5686.85     1.17     0.00    20871      548        0    21419
 1981 033   398    22.14     0.00     0.00  5708.99     1.17     0.00    20952      548        0    21500
 1981 034   399    21.75     0.00     0.00  5730.74     1.17     0.00    21032      549        0    21580
 1981 035   400    24.17     0.00     0.00  5754.91     1.17     0.00    21121      549        0    21670
 1981 036   401    25.57     0.00     0.00  5780.47     1.18     0.00    21214      550        0    21765
 1981 037   402    22.78     0.00     0.00  5803.25     1.18     0.00    21298      552        0    21850
 1981 038   403    19.30     0.00     0.00  5822.55     1.18     0.00    21369      553        0    21922
 1981 039   404    16.06     0.00     0.00  5838.61     1.18     0.00    21428      554        0    21982
 1981 040   405    14.33     0.00     0.00  5852.95     1.19     0.00    21480      555        0    22036
 1981 041   406    15.81     0.00     0.00  5868.76     1.19     0.00    21538      556        0    22095
 1981 042   407    16.17     0.00     0.00  5884.93     1.19     0.00    21598      557        0    22155
 1981 043   408    14.74     0.00     0.00  5899.66     1.19     0.00    21652      559        0    22210
 1981 044   409    15.75     0.00     0.00  5915.42     1.20     0.00    21710      560        0    22269
 1981 045   410    18.73     0.00     0.00  5934.15     1.20     0.00    21778      560        0    22338
 1981 046   411    20.10     0.00     0.00  5954.24     1.20     0.00    21852      560        0    22412
 1981 047   412    19.38     0.00     0.00  5973.62     1.20     0.00    21923      560        0    22483
 1981 048   413    19.00     0.00     0.00  5992.62     1.20     0.00    21993      560        0    22553
 1981 049   414    20.38     0.00     0.00  6013.00     1.20     0.00    22068      561        0    22628
 1981 050   415    22.21     0.00     0.00  6035.22     1.20     0.00    22149      561        0    22711
 1981 051   416    22.38     0.00     0.00  6057.59     1.20     0.00    22231      562        0    22793
 1981 052   417    23.92     0.00     0.00  6081.52     1.20     0.00    22319      563        0    22882
 1981 053   418    23.28     0.00     0.00  6104.80     1.20     0.00    22405      564        0    22968
 1981 054   419    20.46     0.00     0.00  6125.26     1.21     0.00    22480      565        0    23044
 1981 055   420    17.25     0.00     0.00  6142.51     1.21     0.00    22543      566        0    23109
 1981 056   421    14.86     0.00     0.00  6157.36     1.21     0.00    22598      567        0    23164
 1981 057   422    13.01     0.00     0.00  6170.37     1.21     0.00    22645      568        0    23213
 1981 058   423    11.85     0.00     0.00  6182.23     1.22     0.00    22689      569        0    23258
 1981 059   424    23.23     0.00     0.00  6205.46     1.22     0.00    22774      570        0    23344
 1981 060   425    23.98     0.00     0.00  6229.44     1.22     0.00    22862      570        0    23432
 1981 061   426    24.89     0.00     0.00  6254.33     1.22     0.00    22953      571        0    23524
 1981 062   427    23.89     0.00     0.00  6278.21     1.22     0.00    23041      572        0    23613
 1981 063   428    20.05     0.00     0.00  6298.26     1.22     0.00    23115      572        0    23686
 1981 064   429    19.66     0.00     0.00  6317.93     1.22     0.00    23187      572        0    23759
 1981 065   430    20.17     0.00     0.00  6338.10     1.23     0.00    23261      574        0    23835
 1981 066   431    18.28     0.00     0.00  6356.37     1.23     0.00    23328      576        0    23903
 1981 067   432    15.90     0.00     0.00  6372.27     1.23     0.00    23386      577        0    23963
 1981 068   433    13.73     0.00     0.00  6386.00     1.24     0.00    23437      579        0    24015
 1981 069   434    11.53     0.00     0.00  6397.54     1.24     0.00    23479      580        0    24059
 1981 070   435     9.75     0.00     0.00  6407.29     1.24     0.00    23515      582        0    24097
 1981 071   436     8.49     0.00     0.00  6415.78     1.25     0.00    23546      583        0    24129
 1981 072   437     7.88     0.00     0.00  6423.66     1.25     0.00    23575      585        0    24160
 1981 073   438    11.06     0.00     0.00  6434.72     1.25     0.00    23615      586        0    24201
 1981 074   439    14.59     0.00     0.00  6449.31     1.25     0.00    23669      587        0    24256
 1981 075   440    17.84     0.00     0.00  6467.15     1.26     0.00    23734      588        0    24322
 1981 076   441    17.50     0.00     0.00  6484.65     1.26     0.00    23799      589        0    24387
 1981 077   442    14.48     0.00     0.00  6499.13     1.26     0.00    23852      589        0    24441
 1981 078   443    11.11     0.00     0.00  6510.23     1.26     0.00    23893      590        0    24483
 1981 079   444     9.16     0.00     0.00  6519.40     1.26     0.00    23926      591        0    24517
 1981 080   445     7.79     0.00     0.00  6527.19     1.26     0.00    23955      592        0    24547
 1981 081   446     6.73     0.00     0.00  6533.92     1.27     0.00    23979      593        0    24572
 1981 082   447     5.94     0.00     0.00  6539.85     1.27     0.00    24001      594        0    24595
 1981 083   448     5.23     0.00     0.00  6545.08     1.27     0.00    24020      595        0    24615
 1981 084   449     4.51     0.00     0.00  6549.59     1.27     0.00    24037      595        0    24632
 1981 085   450     3.75     0.00     0.00  6553.34     1.27     0.00    24051      596        0    24647
 1981 086   451     2.88     0.00     0.00  6556.22     1.27     0.00    24061      597        0    24658
 1981 087   452     2.41     0.00     0.00  6558.63     1.28     0.00    24070      597        0    24668
 1981 088   453     2.26     0.00     0.00  6560.89     1.28     0.00    24078      598        0    24677
 1981 089   454     2.20     0.00     0.00  6563.10     1.28     0.00    24087      599        0    24685
 1981 090   455    14.46     0.00     0.00  6577.56     1.28     0.00    24140      599        0    24739
 1981 091   456    17.11     0.00     0.00  6594.67     1.28     0.00    24202      599        0    24801
 1981 092   457    18.82     0.00     0.00  6613.49     1.28     0.00    24272      600        0    24872
 1981 093   458    17.04     0.00     0.00  6630.53     1.29     0.00    24334      602        0    24936
 1981 094   459    17.69     0.00     0.00  6648.22     1.29     0.00    24399      604        0    25003
 1981 095   460    16.44     0.00     0.00  6664.66     1.29     0.00    24459      606        0    25065
 1981 096   461    13.97     0.00     0.00  6678.63     1.30     0.00    24511      608        0    25118
 1981 097   462    11.12     0.00     0.00  6689.74     1.30     0.00    24551      610        0    25161
 1981 098   463     9.04     0.00     0.00  6698.78     1.31     0.00    24585      611        0    25196
 1981 099   464     7.79     0.00     0.00  6706.58     1.31     0.00    24613      613        0    25226
 1981 100   465     7.06     0.00     0.00  6713.64     1.31     0.00    24639      615        0    25254
 1981 101   466     6.59     0.00     0.00  6720.22     1.32     0.00    24663      616        0    25280
 1981 102   467    16.25     0.00     0.00  6736.48     1.32     0.00    24723      617        0    25340
 1981 103   468    17.31     0.00     0.00  6753.79     1.32     0.00    24786      618        0    25404
 1981 104   469    17.85     0.00     0.00  6771.64     1.32     0.00    24852      618        0    25470
 1981 105   470    17.48     0.00     0.00  6789.12     1.32     0.00    24916      619        0    25536
 1981 106   471    15.38     0.00     0.00  6804.50     1.33     0.00    24973      620        0    25593
 1981 107   472    12.91     0.00     0.00  6817.41     1.33     0.00    25020      621        0    25641
 1981 108   473    10.70     0.00     0.00  6828.11     1.33     0.00    25059      622        0    25681
 1981 109   474     8.61     0.00     0.00  6836.71     1.33     0.00    25091      623        0    25714
 1981 110   475     7.48     0.00     0.00  6844.19     1.33     0.00    25118      624        0    25742
 1981 111   476     6.94     0.00     0.00  6851.14     1.33     0.00    25144      625        0    25768
 1981 112   477     6.65     0.00     0.00  6857.78     1.34     0.00    25168      625        0    25794
 1981 113   478    14.53     0.00     0.00  6872.32     1.34     0.00    25221      626        0    25848
 1981 114   479    16.46     0.00     0.00  6888.78     1.34     0.00    25282      626        0    25908
 1981 115   480    17.03     0.00     0.00  6905.81     1.34     0.00    25344      627        0    25971
 1981 116   481    16.74     0.00     0.00  6922.56     1.34     0.00    25406      627        0    26033
 1981 117   482    14.13     0.00     0.00  6936.69     1.34     0.00    25458      627        0    26085
 1981 118   483    12.85     0.00     0.00  6949.53     1.34     0.00    25505      627        0    26132
 1981 119   484    13.77     0.00     0.00  6963.30     1.34     0.00    25555      628        0    26183
 1981 120   485    14.45     0.00     0.00  6977.74     1.34     0.00    25608      628        0    26236
 1981 121   486    14.77     0.00     0.00  6992.51     1.34     0.00    25663      629        0    26291
 1981 122   487    14.62     0.00     0.00  7007.14     1.34     0.00    25716      629        0    26345
 1981 123   488    14.40     0.00     0.00  7021.54     1.35     0.00    25769      630        0    26399
 1981 124   489    14.68     0.00     0.00  7036.22     1.35     0.00    25823      630        0    26453
 1981 125   490    15.32     0.00     0.00  7051.54     1.35     0.00    25879      631        0    26510
 1981 126   491    16.74     0.00     0.00  7068.28     1.35     0.00    25941      631        0    26572
 1981 127   492    16.06     0.00     0.00  7084.34     1.35     0.00    26000      631        0    26631
 1981 128   493    18.76     0.00     0.00  7103.10     1.35     0.00    26068      631        0    26700
 1981 129   494    22.41     0.00     0.00  7125.52     1.35     0.00    26151      632        0    26782
 1981 130   495    24.30     0.00     0.00  7149.81     1.35     0.00    26240      632        0    26872
 1981 131   496    23.52     0.00     0.00  7173.33     1.35     0.00    26326      633        0    26959
 1981 132   497    20.15     0.00     0.00  7193.48     1.35     0.00    26400      633        0    27033
 1981 133   498    19.48     0.00     0.00  7212.96     1.35     0.00    26472      633        0    27104
 1981 134   499    19.42     0.00     0.00  7232.38     1.35     0.00    26543      633        0    27176
 1981 135   500    18.95     0.00     0.00  7251.32     1.35     0.00    26612      633        0    27245
 1981 136   501    18.11     0.00     0.00  7269.43     1.35     0.00    26679      633        0    27312
 1981 137   502    19.09     0.00     0.00  7288.52     1.35     0.00    26749      633        0    27382
 1981 138   503    20.43     0.00     0.00  7308.95     1.35     0.00    26824      634        0    27457
 1981 139   504    19.64     0.00     0.00  7328.59     1.35     0.00    26896      634        0    27530
 1981 140   505    19.42     0.00     0.00  7348.00     1.35     0.00    26967      634        0    27601
 1981 141   506    17.67     0.00     0.00  7365.68     1.35     0.00    27032      634        0    27666
 1981 142   507    19.62     0.00     0.00  7385.30     1.36     0.00    27104      635        0    27739
 1981 143   508    21.12     0.00     0.00  7406.42     1.36     0.00    27182      635        0    27817
 1981 144   509    22.07     0.00     0.00  7428.49     1.36     0.00    27263      636        0    27898
 1981 145   510    21.21     0.00     0.00  7449.70     1.36     0.00    27340      636        0    27977
 1981 146   511    19.37     0.00     0.00  7469.07     1.36     0.00    27412      636        0    28048
 1981 147   512    20.69     0.00     0.00  7489.77     1.36     0.00    27487      637        0    28124
 1981 148   513    20.99     0.00     0.00  7510.76     1.36     0.00    27564      638        0    28202
 1981 149   514    20.17     0.00     0.00  7530.92     1.36     0.00    27638      639        0    28277
 1981 150   515    19.25     0.00     0.00  7550.18     1.37     0.00    27709      640        0    28349
 1981 151   516    18.99     0.00     0.00  7569.17     1.37     0.00    27779      641        0    28420
 1981 152   517    19.46     0.00     0.00  7588.62     1.37     0.00    27850      642        0    28492
 1981 153   518    18.54     0.00     0.00  7607.16     1.37     0.00    27918      642        0    28561
 1981 154   519    16.65     0.00     0.00  7623.81     1.37     0.00    27979      643        0    28622
 1981 155   520    15.33     0.00     0.00  7639.14     1.37     0.00    28036      643        0    28678
 1981 156   521    16.30     0.00     0.00  7655.44     1.37     0.00    28095      643        0    28739
 1981 157   522    16.26     0.00     0.00  7671.69     1.38     0.00    28155      644        0    28799
 1981 158   523    15.20     0.00     0.00  7686.90     1.38     0.00    28211      645        0    28856
 1981 159   524    14.37     0.00     0.00  7701.27     1.38     0.00    28264      647        0    28910
 1981 160   525    13.94     0.00     0.00  7715.21     1.38     0.00    28315      648        0    28963
 1981 161   526    14.05     0.00     0.00  7729.26     1.39     0.00    28366      650        0    29016
 1981 162   527    13.90     0.00     0.00  7743.16     1.39     0.00    28417      651        0    29068
 1981 163   528    13.47     0.00     0.00  7756.62     1.39     0.00    28467      653        0    29119
 1981 164   529    13.26     0.00     0.00  7769.88     1.40     0.00    28515      654        0    29170
 1981 165   530    13.01     0.00     0.00  7782.90     1.40     0.00    28563      656        0    29219
 1981 166   531    12.32     0.00     0.00  7795.21     1.40     0.00    28608      657        0    29266
 1981 167   532    12.17     0.00     0.00  7807.38     1.41     0.00    28653      659        0    29312
 1981 168   533    12.09     0.00     0.00  7819.47     1.41     0.00    28697      660        0    29358
 1981 169   534    11.72     0.00     0.00  7831.19     1.41     0.00    28740      662        0    29402
 1981 170   535    11.48     0.00     0.00  7842.67     1.42     0.00    28783      663        0    29446
 1981 171   536    11.57     0.00     0.00  7854.24     1.42     0.00    28825      665        0    29490
 1981 172   537    11.14     0.00     0.00  7865.38     1.42     0.00    28866      666        0    29532
 1981 173   538    11.34     0.00     0.00  7876.72     1.43     0.00    28908      668        0    29575
 1981 174   539    11.68     0.00     0.00  7888.40     1.43     0.00    28950      669        0    29619
 1981 175   540    10.68     0.00     0.00  7899.07     1.43     0.00    28990      669        0    29659
 1981 176   541    10.77     0.00     0.00  7909.84     1.43     0.00    29029      670        0    29699
 1981 177   542    11.35     0.00     0.00  7921.19     1.43     0.00    29071      670        0    29741
 1981 178   543    11.08     0.00     0.00  7932.27     1.43     0.00    29111      670        0    29781
 1981 179   544    11.76     0.00     0.00  7944.03     1.43     0.00    29155      670        0    29825
 1981 180   545    12.61     0.00     0.00  7956.63     1.43     0.00    29201      670        0    29871
 1981 181   546    14.27     0.00     0.00  7970.90     1.43     0.00    29253      671        0    29924
 1981 182   547    15.53     0.00     0.00  7986.43     1.43     0.00    29310      671        0    29981
 1981 183   548    15.23     0.00     0.00  8001.66     1.44     0.00    29366      672        0    30038
 1981 184   549    14.10     0.00     0.00  8015.76     1.44     0.00    29418      673        0    30091
 1981 185   550    13.46     0.00     0.00  8029.22     1.44     0.00    29467      674        0    30141
 1981 186   551    12.79     0.00     0.00  8042.01     1.44     0.00    29514      676        0    30190
 1981 187   552    12.05     0.00     0.00  8054.06     1.45     0.00    29558      677        0    30235
 1981 188   553    12.02     0.00     0.00  8066.08     1.45     0.00    29603      679        0    30281
 1981 189   554    12.58     0.00     0.00  8078.66     1.45     0.00    29649      680        0    30329
 1981 190   555    13.10     0.00     0.00  8091.76     1.46     0.00    29697      681        0    30378
 1981 191   556    13.60     0.00     0.00  8105.37     1.46     0.00    29747      683        0    30429
 1981 192   557    14.05     0.00     0.00  8119.41     1.46     0.00    29798      684        0    30482
 1981 193   558    14.37     0.00     0.00  8133.78     1.46     0.00    29851      685        0    30536
 1981 194   559    14.03     0.00     0.00  8147.82     1.46     0.00    29902      686        0    30588
 1981 195   560    13.50     0.00     0.00  8161.31     1.47     0.00    29952      686        0    30638
 1981 196   561    13.56     0.00     0.00  8174.88     1.47     0.00    30002      686        0    30688
 1981 197   562    14.03     0.00     0.00  8188.91     1.47     0.00    30053      686        0    30739
 1981 198   563    14.14     0.00     0.00  8203.05     1.47     0.00    30105      686        0    30792
 1981 199   564    13.18     0.00     0.00  8216.24     1.47     0.00    30154      686        0    30840
 1981 200   565    12.23     0.00     0.00  8228.47     1.47     0.00    30198      687        0    30885
 1981 201   566    10.81     0.00     0.00  8239.28     1.47     0.00    30238      687        0    30925
 1981 202   567     9.85     0.00     0.00  8249.13     1.47     0.00    30274      687        0    30961
 1981 203   568     9.44     0.00     0.00  8258.57     1.47     0.00    30309      688        0    30997
 1981 204   569     9.64     0.00     0.00  8268.21     1.47     0.00    30344      689        0    31033
 1981 205   570     9.40     0.00     0.00  8277.61     1.47     0.00    30379      690        0    31069
 1981 206   571     9.20     0.00     0.00  8286.81     1.48     0.00    30413      691        0    31103
 1981 207   572     9.30     0.00     0.00  8296.11     1.48     0.00    30447      692        0    31139
 1981 208   573     9.52     0.00     0.00  8305.63     1.48     0.00    30482      693        0    31175
 1981 209   574    10.06     0.00     0.00  8315.69     1.48     0.00    30519      694        0    31213
 1981 210   575    10.77     0.00     0.00  8326.45     1.49     0.00    30558      696        0    31254
 1981 211   576    11.85     0.00     0.00  8338.30     1.49     0.00    30602      697        0    31298
 1981 212   577    12.18     0.00     0.00  8350.49     1.49     0.00    30646      697        0    31343
 1981 213   578    12.15     0.00     0.00  8362.63     1.49     0.00    30691      697        0    31388
 1981 214   579    13.29     0.00     0.00  8375.92     1.49     0.00    30740      697        0    31437
 1981 215   580    15.23     0.00     0.00  8391.15     1.49     0.00    30796      698        0    31493
 1981 216   581    17.12     0.00     0.00  8408.28     1.49     0.00    30858      699        0    31557
 1981 217   582    19.20     0.00     0.00  8427.47     1.50     0.00    30929      700        0    31629
 1981 218   583    21.06     0.00     0.00  8448.54     1.50     0.00    31006      701        0    31707
 1981 219   584    22.27     0.00     0.00  8470.81     1.50     0.00    31088      702        0    31790
 1981 220   585    19.50     0.00     0.00  8490.31     1.50     0.00    31159      703        0    31862
 1981 221   586    17.27     0.00     0.00  8507.59     1.50     0.00    31223      703        0    31926
 1981 222   587    16.38     0.00     0.00  8523.97     1.50     0.00    31283      703        0    31986
 1981 223   588    15.12     0.00     0.00  8539.09     1.50     0.00    31338      704        0    32042
 1981 224   589    14.11     0.00     0.00  8553.20     1.51     0.00    31390      705        0    32095
 1981 225   590    13.21     0.00     0.00  8566.41     1.51     0.00    31439      706        0    32145
 1981 226   591    12.40     0.00     0.00  8578.81     1.51     0.00    31484      707        0    32192
 1981 227   592    12.23     0.00     0.00  8591.04     1.51     0.00    31529      709        0    32238
 1981 228   593    12.28     0.00     0.00  8603.32     1.52     0.00    31574      710        0    32284
 1981 229   594    12.49     0.00     0.00  8615.81     1.52     0.00    31620      711        0    32331
 1981 230   595    12.97     0.00     0.00  8628.78     1.52     0.00    31668      712        0    32379
 1981 231   596    13.39     0.00     0.00  8642.16     1.52     0.00    31717      713        0    32430
 1981 232   597    13.45     0.00     0.00  8655.62     1.52     0.00    31766      714        0    32480
 1981 233   598    13.14     0.00     0.00  8668.76     1.53     0.00    31814      715        0    32529
 1981 234   599    12.75     0.00     0.00  8681.50     1.53     0.00    31861      716        0    32577
 1981 235   600    12.39     0.00     0.00  8693.90     1.53     0.00    31907      717        0    32623
 1981 236   601    12.28     0.00     0.00  8706.18     1.53     0.00    31952      718        0    32669
 1981 237   602    12.51     0.00     0.00  8718.69     1.53     0.00    31998      718        0    32716
 1981 238   603    15.09     0.00     0.00  8733.78     1.54     0.00    32053      719        0    32772
 1981 239   604    14.23     0.00     0.00  8748.00     1.54     0.00    32105      719        0    32825
 1981 240   605    13.29     0.00     0.00  8761.29     1.54     0.00    32154      720        0    32873
 1981 241   606    13.54     0.00     0.00  8774.84     1.54     0.00    32204      720        0    32924
 1981 242   607    13.59     0.00     0.00  8788.43     1.54     0.00    32254      721        0    32974
 1981 243   608    13.61     0.00     0.00  8802.03     1.54     0.00    32303      722        0    33025
 1981 244   609    13.32     0.00     0.00  8815.35     1.54     0.00    32352      722        0    33075
 1981 245   610    12.38     0.00     0.00  8827.73     1.54     0.00    32398      723        0    33121
 1981 246   611    10.70     0.00     0.00  8838.42     1.54     0.00    32437      723        0    33160
 1981 247   612     9.36     0.00     0.00  8847.79     1.54     0.00    32471      723        0    33195
 1981 248   613     8.72     0.00     0.00  8856.50     1.54     0.00    32503      723        0    33227
 1981 249   614     9.81     0.00     0.00  8866.31     1.55     0.00    32539      724        0    33263
 1981 250   615    11.25     0.00     0.00  8877.56     1.55     0.00    32581      724        0    33305
 1981 251   616    13.19     0.00     0.00  8890.75     1.55     0.00    32629      725        0    33354
 1981 252   617    15.39     0.00     0.00  8906.14     1.55     0.00    32686      726        0    33411
 1981 253   618    17.59     0.00     0.00  8923.73     1.55     0.00    32750      727        0    33477
 1981 254   619    17.42     0.00     0.00  8941.15     1.55     0.00    32814      727        0    33541
 1981 255   620    16.14     0.00     0.00  8957.29     1.55     0.00    32873      727        0    33600
 1981 256   621    14.57     0.00     0.00  8971.86     1.55     0.00    32927      727        0    33654
 1981 257   622    13.05     0.00     0.00  8984.91     1.55     0.00    32975      727        0    33702
 1981 258   623    11.51     0.00     0.00  8996.42     1.55     0.00    33017      727        0    33744
 1981 259   624    10.61     0.00     0.00  9007.03     1.55     0.00    33056      727        0    33783
 1981 260   625    10.14     0.00     0.00  9017.17     1.55     0.00    33093      727        0    33820
 1981 261   626    11.08     0.00     0.00  9028.25     1.55     0.00    33134      728        0    33861
 1981 262   627    12.94     0.00     0.00  9041.19     1.56     0.00    33181      728        0    33910
 1981 263   628    12.99     0.00     0.00  9054.19     1.56     0.00    33229      729        0    33957
 1981 264   629    12.32     0.00     0.00  9066.51     1.56     0.00    33274      729        0    34003
 1981 265   630    13.23     0.00     0.00  9079.74     1.56     0.00    33323      729        0    34052
 1981 266   631    13.70     0.00     0.00  9093.44     1.56     0.00    33373      730        0    34103
 1981 267   632    13.06     0.00     0.00  9106.50     1.56     0.00    33421      730        0    34151
 1981 268   633    12.70     0.00     0.00  9119.20     1.56     0.00    33467      731        0    34199
 1981 269   634    12.74     0.00     0.00  9131.94     1.56     0.00    33514      732        0    34246
 1981 270   635    13.46     0.00     0.00  9145.40     1.57     0.00    33564      733        0    34296
 1981 271   636    14.81     0.00     0.00  9160.22     1.57     0.00    33618      734        0    34352
 1981 272   637    16.58     0.00     0.00  9176.80     1.57     0.00    33679      734        0    34413
 1981 273   638    18.14     0.00     0.00  9194.94     1.57     0.00    33745      735        0    34480
 1981 274   639    18.02     0.00     0.00  9212.95     1.57     0.00    33812      736        0    34547
 1981 275   640    16.26     0.00     0.00  9229.21     1.57     0.00    33871      736        0    34608
 1981 276   641    14.29     0.00     0.00  9243.50     1.57     0.00    33924      737        0    34661
 1981 277   642    12.92     0.00     0.00  9256.42     1.58     0.00    33971      738        0    34709
 1981 278   643    14.00     0.00     0.00  9270.42     1.58     0.00    34022      738        0    34761
 1981 279   644    13.30     0.00     0.00  9283.72     1.58     0.00    34071      739        0    34810
 1981 280   645    12.81     0.00     0.00  9296.53     1.58     0.00    34118      739        0    34857
 1981 281   646    12.38     0.00     0.00  9308.91     1.58     0.00    34164      739        0    34902
 1981 282   647    12.38     0.00     0.00  9321.29     1.58     0.00    34209      739        0    34948
 1981 283   648    12.64     0.00     0.00  9333.93     1.58     0.00    34256      740        0    34995
 1981 284   649    12.52     0.00     0.00  9346.45     1.58     0.00    34301      740        0    35042
 1981 285   650    12.01     0.00     0.00  9358.47     1.58     0.00    34346      741        0    35087
 1981 286   651    11.70     0.00     0.00  9370.16     1.58     0.00    34388      742        0    35130
 1981 287   652    11.59     0.00     0.00  9381.75     1.59     0.00    34431      742        0    35173
 1981 288   653    11.68     0.00     0.00  9393.44     1.59     0.00    34474      743        0    35217
 1981 289   654    11.89     0.00     0.00  9405.33     1.59     0.00    34518      744        0    35261
 1981 290   655    11.92     0.00     0.00  9417.25     1.59     0.00    34561      744        0    35306
 1981 291   656    11.32     0.00     0.00  9428.57     1.59     0.00    34603      745        0    35348
 1981 292   657    10.58     0.00     0.00  9439.15     1.59     0.00    34642      746        0    35387
 1981 293   658     9.86     0.00     0.00  9449.01     1.59     0.00    34678      746        0    35424
 1981 294   659     9.06     0.00     0.00  9458.07     1.60     0.00    34711      747        0    35458
 1981 295   660     8.49     0.00     0.00  9466.55     1.60     0.00    34742      748        0    35490
 1981 296   661     8.39     0.00     0.00  9474.95     1.60     0.00    34773      748        0    35521
 1981 297   662     8.65     0.00     0.00  9483.59     1.60     0.00    34805      749        0    35554
 1981 298   663     8.90     0.00     0.00  9492.49     1.60     0.00    34837      749        0    35587
 1981 299   664     9.14     0.00     0.00  9501.63     1.60     0.00    34871      750        0    35621
 1981 300   665    10.46     0.00     0.00  9512.09     1.60     0.00    34909      751        0    35660
 1981 301   666    14.11     0.00     0.00  9526.20     1.60     0.00    34961      751        0    35712
 1981 302   667    14.80     0.00     0.00  9541.00     1.61     0.00    35015      752        0    35767
 1981 303   668    13.82     0.00     0.00  9554.82     1.61     0.00    35066      752        0    35818
 1981 304   669    12.67     0.00     0.00  9567.49     1.61     0.00    35113      753        0    35865
 1981 305   670    12.05     0.00     0.00  9579.54     1.61     0.00    35157      753        0    35910
 1981 306   671    11.96     0.00     0.00  9591.50     1.61     0.00    35201      754        0    35955
 1981 307   672    20.54     0.00     0.00  9612.03     1.61     0.00    35276      754        0    36030
 1981 308   673    23.83     0.00     0.00  9635.86     1.61     0.00    35364      754        0    36118
 1981 309   674    23.58     0.00     0.00  9659.44     1.61     0.00    35450      754        0    36204
 1981 310   675    22.29     0.00     0.00  9681.74     1.61     0.00    35532      754        0    36286
 1981 311   676    20.52     0.00     0.00  9702.26     1.61     0.00    35607      754        0    36361
 1981 312   677    21.27     0.00     0.00  9723.52     1.61     0.00    35685      754        0    36440
 1981 313   678    22.52     0.00     0.00  9746.04     1.61     0.00    35768      755        0    36523
 1981 314   679    23.22     0.00     0.00  9769.26     1.61     0.00    35853      755        0    36608
 1981 315   680    22.93     0.00     0.00  9792.19     1.61     0.00    35937      756        0    36693
 1981 316   681    22.41     0.00     0.00  9814.60     1.62     0.00    36020      757        0    36777
 1981 317   682    21.07     0.00     0.00  9835.67     1.62     0.00    36097      760        0    36857
 1981 318   683    19.23     0.01     0.00  9854.90     1.63     0.00    36167      762        0    36930
 1981 319   684    24.30     0.00     0.00  9879.20     1.63     0.00    36257      764        0    37020
 1981 320   685    22.93     0.00     0.00  9902.13     1.63     0.00    36341      764        0    37105
 1981 321   686    22.08     0.00     0.00  9924.21     1.63     0.00    36422      764        0    37186
 1981 322   687    23.86     0.00     0.00  9948.07     1.64     0.00    36509      765        0    37275
 1981 323   688    24.50     0.01     0.00  9972.57     1.64     0.00    36599      768        0    37367
 1981 324   689    20.35     0.00     0.00  9992.93     1.64     0.00    36674      769        0    37443
 1981 325   690    19.15     0.00     0.00 10012.08     1.64     0.00    36744      770        0    37514
 1981 326   691    21.80     0.01     0.00 10033.88     1.65     0.00    36824      774        0    37598
 1981 327   692    24.20     0.02     0.00 10058.08     1.67     0.00    36913      782        0    37695
 1981 328   693    24.12     0.02     0.00 10082.20     1.69     0.00    37002      791        0    37792
 1981 329   694    23.30     0.02     0.00 10105.50     1.71     0.00    37087      799        0    37886
 1981 330   695    21.95     0.02     0.00 10127.46     1.73     0.00    37168      808        0    37975
 1981 331   696    19.94     0.02     0.00 10147.40     1.74     0.00    37241      816        0    38057
 1981 332   697    18.19     0.02     0.00 10165.59     1.76     0.00    37308      824        0    38132
 1981 333   698    17.19     0.02     0.00 10182.78     1.78     0.00    37371      832        0    38203
 1981 334   699    16.31     0.02     0.00 10199.08     1.79     0.00    37431      840        0    38271
 1981 335   700    16.02     0.02     0.00 10215.11     1.81     0.00    37489      848        0    38337
 1981 336   701    19.94     0.02     0.00 10235.05     1.83     0.00    37563      855        0    38418
 1981 337   702    20.53     0.01     0.00 10255.58     1.84     0.00    37638      862        0    38500
 1981 338   703    19.89     0.01     0.00 10275.47     1.86     0.00    37711      869        0    38580
 1981 339   704    19.18     0.01     0.00 10294.65     1.87     0.00    37781      875        0    38657
 1981 340   705    20.18     0.01     0.00 10314.83     1.88     0.00    37855      882        0    38737
 1981 341   706    21.70     0.00     0.00 10336.53     1.89     0.00    37935      884        0    38819
 1981 342   707    24.18     0.01     0.00 10360.71     1.90     0.00    38024      888        0    38912
 1981 343   708    25.37     0.01     0.00 10386.08     1.91     0.00    38117      894        0    39011
 1981 344   709    24.18     0.01     0.00 10410.26     1.92     0.00    38206      900        0    39106
 1981 345   710    21.66     0.01     0.00 10431.92     1.93     0.00    38285      906        0    39191
 1981 346   711    18.83     0.01     0.00 10450.75     1.95     0.00    38354      912        0    39266
 1981 347   712    16.71     0.01     0.00 10467.45     1.96     0.00    38416      917        0    39333
 1981 348   713    15.35     0.01     0.00 10482.80     1.97     0.00    38472      922        0    39394
 1981 349   714    22.42     0.01     0.00 10505.22     1.98     0.00    38554      927        0    39481
 1981 350   715    27.30     0.01     0.00 10532.52     1.99     0.00    38654      931        0    39585
 1981 351   716    27.18     0.01     0.00 10559.70     2.00     0.00    38754      935        0    39689
 1981 352   717    25.60     0.01     0.00 10585.30     2.01     0.00    38848      939        0    39787
 1981 353   718    23.47     0.01     0.00 10608.77     2.01     0.00    38934      943        0    39877
 1981 354   719    20.76     0.01     0.00 10629.54     2.02     0.00    39010      947        0    39957
 1981 355   720    24.95     0.00     0.00 10654.49     2.02     0.00    39102      948        0    40050
 1981 356   721    26.01     0.00     0.00 10680.50     2.03     0.00    39197      948        0    40145
 1981 357   722    27.64     0.00     0.00 10708.14     2.03     0.00    39299      950        0    40249
 1981 358   723    24.96     0.00     0.00 10733.09     2.03     0.00    39390      951        0    40341
 1981 359   724    24.20     0.00     0.00 10757.29     2.03     0.00    39479      952        0    40431
 1981 360   725    25.00     0.01     0.00 10782.29     2.04     0.00    39571      954        0    40525
 1981 361   726    25.50     0.01     0.00 10807.79     2.05     0.00    39665      958        0    40622
 1981 362   727    25.41     0.01     0.00 10833.20     2.05     0.00    39758      961        0    40718
 1981 363   728    25.18     0.01     0.00 10858.39     2.06     0.00    39850      963        0    40814
 1981 364   729    24.49     0.01     0.00 10882.88     2.06     0.00    39940      966        0    40906
 1981 365   730    23.38     0.01     0.00 10906.25     2.07     0.00    40026      969        0    40995
 1982 001   731    26.42     0.01     0.00 10932.67     2.07     0.00    40123      971        0    41094
 1982 002   732    28.17     0.00     0.00 10960.84     2.08     0.00    40226      972        0    41199
 1982 003   733    28.10     0.00     0.00 10988.94     2.08     0.00    40329      975        0    41304
 1982 004   734    24.94     0.00     0.00 11013.88     2.09     0.00    40421      977        0    41398
[...]
 2016 178 13326     1.84     0.00     0.00119291.27    41.22     0.00   437799    19297        0   457096
 2016 179 13327     1.94     0.00     0.00119293.21    41.22     0.00   437806    19297        0   457103
 2016 180 13328     2.03     0.00     0.00119295.24    41.22     0.00   437814    19298        0   457111
 2016 181 13329     2.13     0.00     0.00119297.37    41.22     0.00   437821    19300        0   457121
 2016 182 13330     2.23     0.00     0.00119299.59    41.23     0.00   437830    19300        0   457130
 2016 183 13331     2.39     0.00     0.00119301.98    41.23     0.00   437838    19301        0   457139
 2016 184 13332     2.58     0.00     0.00119304.56    41.23     0.00   437848    19303        0   457151
 2016 185 13333     2.65     0.00     0.00119307.21    41.24     0.00   437857    19305        0   457163
 2016 186 13334     2.78     0.00     0.00119309.99    41.24     0.00   437868    19307        0   457175
 2016 187 13335     2.85     0.00     0.00119312.84    41.24     0.00   437878    19309        0   457187
 2016 188 13336     2.85     0.00     0.00119315.70    41.25     0.00   437889    19309        0   457198
 2016 189 13337     2.60     0.00     0.00119318.30    41.25     0.00   437898    19310        0   457208
 2016 190 13338     2.48     0.00     0.00119320.78    41.25     0.00   437907    19310        0   457218
 2016 191 13339     2.40     0.00     0.00119323.18    41.25     0.00   437916    19312        0   457228
 2016 192 13340     2.13     0.00     0.00119325.31    41.26     0.00   437924    19314        0   457238
 2016 193 13341     2.00     0.00     0.00119327.32    41.26     0.00   437931    19316        0   457247
 2016 194 13342     2.00     0.00     0.00119329.31    41.26     0.00   437939    19318        0   457256
 2016 195 13343     1.95     0.00     0.00119331.27    41.26     0.00   437946    19318        0   457264
 2016 196 13344     1.93     0.00     0.00119333.20    41.27     0.00   437953    19319        0   457272
 2016 197 13345     1.98     0.00     0.00119335.17    41.27     0.00   437960    19321        0   457281
 2016 198 13346     1.91     0.00     0.00119337.09    41.27     0.00   437967    19321        0   457288
 2016 199 13347     1.87     0.00     0.00119338.96    41.27     0.00   437974    19322        0   457296
 2016 200 13348     1.77     0.00     0.00119340.73    41.28     0.00   437980    19324        0   457304
 2016 201 13349     1.70     0.00     0.00119342.43    41.28     0.00   437987    19325        0   457312
 2016 202 13350     1.61     0.00     0.00119344.04    41.28     0.00   437993    19327        0   457320
 2016 203 13351     1.53     0.00     0.00119345.57    41.29     0.00   437998    19329        0   457327
 2016 204 13352     1.52     0.00     0.00119347.09    41.29     0.00   438004    19331        0   457335
 2016 205 13353     1.57     0.00     0.00119348.66    41.29     0.00   438010    19333        0   457342
 2016 206 13354     1.65     0.00     0.00119350.30    41.30     0.00   438016    19334        0   457350
 2016 207 13355     1.69     0.00     0.00119351.99    41.30     0.00   438022    19336        0   457358
 2016 208 13356     1.76     0.00     0.00119353.76    41.31     0.00   438028    19338        0   457367
 2016 209 13357     1.83     0.00     0.00119355.59    41.31     0.00   438035    19338        0   457373
 2016 210 13358     1.85     0.00     0.00119357.44    41.31     0.00   438042    19339        0   457381
 2016 211 13359     1.79     0.00     0.00119359.23    41.31     0.00   438048    19341        0   457390
 2016 212 13360     1.79     0.00     0.00119361.03    41.32     0.00   438055    19343        0   457398
 2016 213 13361     1.91     0.00     0.00119362.94    41.32     0.00   438062    19344        0   457406
 2016 214 13362     2.06     0.00     0.00119365.00    41.32     0.00   438070    19346        0   457416
 2016 215 13363     2.26     0.00     0.00119367.26    41.33     0.00   438078    19348        0   457426
 2016 216 13364     2.27     0.00     0.00119369.52    41.33     0.00   438086    19350        0   457436
 2016 217 13365     2.18     0.00     0.00119371.70    41.34     0.00   438094    19351        0   457446
 2016 218 13366     2.15     0.00     0.00119373.85    41.34     0.00   438102    19353        0   457455
 2016 219 13367     2.06     0.00     0.00119375.91    41.34     0.00   438110    19355        0   457465
 2016 220 13368     2.02     0.00     0.00119377.94    41.34     0.00   438117    19355        0   457472
 2016 221 13369     2.07     0.00     0.00119380.01    41.35     0.00   438125    19356        0   457481
 2016 222 13370     2.14     0.00     0.00119382.15    41.35     0.00   438133    19358        0   457491
 2016 223 13371     2.09     0.00     0.00119384.24    41.35     0.00   438140    19360        0   457500
 2016 224 13372     1.99     0.00     0.00119386.23    41.36     0.00   438148    19362        0   457510
 2016 225 13373     1.93     0.00     0.00119388.16    41.36     0.00   438155    19364        0   457519
 2016 226 13374     1.96     0.00     0.00119390.12    41.37     0.00   438162    19366        0   457528
 2016 227 13375     2.04     0.00     0.00119392.16    41.37     0.00   438169    19368        0   457537
 2016 228 13376     2.06     0.00     0.00119394.22    41.37     0.00   438177    19370        0   457547
 2016 229 13377     2.19     0.00     0.00119396.41    41.38     0.00   438185    19372        0   457557
 2016 230 13378     2.48     0.00     0.00119398.90    41.38     0.00   438194    19372        0   457566
 2016 231 13379     2.50     0.00     0.00119401.40    41.38     0.00   438203    19373        0   457576
 2016 232 13380     2.52     0.00     0.00119403.92    41.38     0.00   438212    19374        0   457587
 2016 233 13381     2.43     0.00     0.00119406.35    41.39     0.00   438221    19376        0   457597
 2016 234 13382     2.33     0.00     0.00119408.68    41.39     0.00   438230    19377        0   457607
 2016 235 13383     2.17     0.00     0.00119410.85    41.39     0.00   438238    19379        0   457616
 2016 236 13384     2.07     0.00     0.00119412.92    41.40     0.00   438245    19380        0   457626
 2016 237 13385     2.07     0.00     0.00119414.99    41.40     0.00   438253    19382        0   457635
 2016 238 13386     2.08     0.00     0.00119417.07    41.40     0.00   438261    19384        0   457645
 2016 239 13387     2.14     0.00     0.00119419.21    41.41     0.00   438269    19386        0   457654
 2016 240 13388     2.37     0.00     0.00119421.58    41.41     0.00   438277    19388        0   457665
 2016 241 13389     2.52     0.00     0.00119424.10    41.42     0.00   438286    19390        0   457676
 2016 242 13390     2.73     0.00     0.00119426.83    41.42     0.00   438296    19390        0   457687
 2016 243 13391     2.52     0.00     0.00119429.35    41.42     0.00   438306    19390        0   457696
 2016 244 13392     2.34     0.00     0.00119431.69    41.42     0.00   438314    19391        0   457705
 2016 245 13393     2.14     0.00     0.00119433.83    41.42     0.00   438322    19391        0   457713
 2016 246 13394     2.01     0.00     0.00119435.84    41.42     0.00   438330    19392        0   457722
 2016 247 13395     1.87     0.00     0.00119437.72    41.43     0.00   438336    19394        0   457730
 2016 248 13396     1.78     0.00     0.00119439.50    41.43     0.00   438343    19394        0   457737
 2016 249 13397     1.73     0.00     0.00119441.23    41.43     0.00   438349    19394        0   457744
 2016 250 13398     1.72     0.00     0.00119442.95    41.43     0.00   438356    19395        0   457750
 2016 251 13399     1.64     0.00     0.00119444.59    41.43     0.00   438362    19395        0   457757
 2016 252 13400     1.72     0.00     0.00119446.30    41.43     0.00   438368    19396        0   457764
 2016 253 13401     1.84     0.00     0.00119448.15    41.43     0.00   438375    19397        0   457772
 2016 254 13402     1.93     0.00     0.00119450.07    41.44     0.00   438382    19398        0   457780
 2016 255 13403     2.12     0.00     0.00119452.20    41.44     0.00   438390    19400        0   457789
 2016 256 13404     2.19     0.00     0.00119454.38    41.44     0.00   438398    19401        0   457799
 2016 257 13405     2.27     0.00     0.00119456.66    41.45     0.00   438406    19403        0   457809
 2016 258 13406     2.52     0.00     0.00119459.18    41.45     0.00   438415    19403        0   457819
 2016 259 13407     2.49     0.00     0.00119461.66    41.45     0.00   438424    19405        0   457829
 2016 260 13408     2.21     0.00     0.00119463.88    41.45     0.00   438432    19406        0   457838
 2016 261 13409     2.13     0.00     0.00119466.01    41.45     0.00   438440    19407        0   457847
 2016 262 13410     2.03     0.00     0.00119468.03    41.46     0.00   438448    19408        0   457856
 2016 263 13411     1.97     0.00     0.00119470.00    41.46     0.00   438455    19410        0   457865
 2016 264 13412     1.95     0.00     0.00119471.95    41.46     0.00   438462    19411        0   457873
 2016 265 13413     2.01     0.00     0.00119473.95    41.47     0.00   438469    19413        0   457882
 2016 266 13414     2.05     0.00     0.00119476.01    41.47     0.00   438477    19414        0   457891
 2016 267 13415     2.16     0.00     0.00119478.16    41.47     0.00   438485    19415        0   457900
 2016 268 13416     2.16     0.00     0.00119480.33    41.48     0.00   438493    19417        0   457910
 2016 269 13417     2.15     0.00     0.00119482.48    41.48     0.00   438501    19418        0   457919
 2016 270 13418     2.08     0.00     0.00119484.57    41.48     0.00   438508    19420        0   457928
 2016 271 13419     1.98     0.00     0.00119486.55    41.48     0.00   438516    19421        0   457937
 2016 272 13420     1.89     0.00     0.00119488.45    41.49     0.00   438523    19422        0   457945
 2016 273 13421     1.91     0.00     0.00119490.36    41.49     0.00   438530    19424        0   457953
 2016 274 13422     1.95     0.00     0.00119492.30    41.49     0.00   438537    19425        0   457962
 2016 275 13423     2.00     0.00     0.00119494.30    41.50     0.00   438544    19426        0   457971
 2016 276 13424     2.08     0.00     0.00119496.38    41.50     0.00   438552    19428        0   457979
 2016 277 13425     2.11     0.00     0.00119498.49    41.50     0.00   438559    19429        0   457988
 2016 278 13426     2.10     0.00     0.00119500.59    41.50     0.00   438567    19430        0   457997
 2016 279 13427     2.14     0.00     0.00119502.73    41.51     0.00   438575    19431        0   458007
 2016 280 13428     2.18     0.00     0.00119504.91    41.51     0.00   438583    19433        0   458016
 2016 281 13429     2.19     0.00     0.00119507.10    41.51     0.00   438591    19434        0   458025
 2016 282 13430     2.19     0.00     0.00119509.30    41.51     0.00   438599    19435        0   458034
 2016 283 13431     2.39     0.00     0.00119511.68    41.52     0.00   438608    19436        0   458044
 2016 284 13432     2.41     0.00     0.00119514.09    41.52     0.00   438617    19437        0   458054
 2016 285 13433     2.45     0.00     0.00119516.55    41.52     0.00   438626    19438        0   458064
 2016 286 13434     2.49     0.00     0.00119519.04    41.52     0.00   438635    19439        0   458074
 2016 287 13435     2.53     0.00     0.00119521.56    41.52     0.00   438644    19440        0   458084
 2016 288 13436     2.73     0.00     0.00119524.29    41.53     0.00   438654    19441        0   458095
 2016 289 13437     2.84     0.00     0.00119527.13    41.53     0.00   438665    19442        0   458107
 2016 290 13438     2.79     0.00     0.00119529.92    41.53     0.00   438675    19443        0   458118
 2016 291 13439     3.08     0.00     0.00119533.00    41.53     0.00   438686    19443        0   458130
 2016 292 13440     3.02     0.00     0.00119536.02    41.53     0.00   438697    19444        0   458141
 2016 293 13441     2.80     0.00     0.00119538.82    41.53     0.00   438707    19444        0   458152
 2016 294 13442     2.67     0.00     0.00119541.49    41.54     0.00   438717    19445        0   458163
 2016 295 13443     2.43     0.00     0.00119543.93    41.54     0.00   438726    19446        0   458172
 2016 296 13444     2.29     0.00     0.00119546.22    41.54     0.00   438735    19446        0   458181
 2016 297 13445     2.21     0.00     0.00119548.42    41.54     0.00   438743    19447        0   458190
 2016 298 13446     2.27     0.00     0.00119550.70    41.54     0.00   438751    19448        0   458199
 2016 299 13447     2.29     0.00     0.00119552.98    41.54     0.00   438759    19449        0   458209
 2016 300 13448     2.30     0.00     0.00119555.29    41.55     0.00   438768    19450        0   458218
 2016 301 13449     2.53     0.00     0.00119557.81    41.55     0.00   438777    19451        0   458228
 2016 302 13450     2.63     0.00     0.00119560.45    41.55     0.00   438787    19451        0   458238
 2016 303 13451     2.51     0.00     0.00119562.95    41.55     0.00   438796    19452        0   458248
 2016 304 13452     2.39     0.00     0.00119565.34    41.55     0.00   438805    19453        0   458258
 2016 305 13453     2.40     0.00     0.00119567.74    41.55     0.00   438814    19454        0   458268
 2016 306 13454     2.52     0.00     0.00119570.26    41.56     0.00   438823    19455        0   458278
 2016 307 13455     2.61     0.00     0.00119572.88    41.56     0.00   438832    19456        0   458289
 2016 308 13456     2.88     0.00     0.00119575.76    41.56     0.00   438843    19456        0   458299
 2016 309 13457     3.01     0.00     0.00119578.77    41.56     0.00   438854    19457        0   458311
 2016 310 13458     3.02     0.00     0.00119581.79    41.56     0.00   438865    19458        0   458323
 2016 311 13459     3.00     0.00     0.00119584.79    41.56     0.00   438876    19459        0   458335
 2016 312 13460     3.08     0.00     0.00119587.87    41.57     0.00   438887    19460        0   458347
 2016 313 13461     3.36     0.00     0.00119591.23    41.57     0.00   438900    19461        0   458361
 2016 314 13462     3.36     0.00     0.00119594.59    41.57     0.00   438912    19462        0   458374
 2016 315 13463     3.21     0.00     0.00119597.80    41.57     0.00   438924    19463        0   458387
 2016 316 13464     3.21     0.00     0.00119601.01    41.57     0.00   438936    19464        0   458399
 2016 317 13465     3.03     0.00     0.00119604.04    41.58     0.00   438947    19465        0   458411
 2016 318 13466     2.84     0.00     0.00119606.88    41.58     0.00   438957    19465        0   458423
 2016 319 13467     2.85     0.00     0.00119609.73    41.58     0.00   438968    19466        0   458434
 2016 320 13468     2.96     0.00     0.00119612.70    41.58     0.00   438979    19467        0   458446
 2016 321 13469     3.02     0.00     0.00119615.72    41.58     0.00   438990    19468        0   458458
 2016 322 13470     3.19     0.00     0.00119618.91    41.59     0.00   439001    19469        0   458471
 2016 323 13471     3.04     0.00     0.00119621.95    41.59     0.00   439013    19470        0   458483
 2016 324 13472     3.31     0.00     0.00119625.27    41.59     0.00   439025    19471        0   458495
 2016 325 13473     2.97     0.00     0.00119628.24    41.59     0.00   439036    19472        0   458507
 2016 326 13474     2.73     0.00     0.00119630.98    41.59     0.00   439046    19472        0   458518
 2016 327 13475     2.57     0.00     0.00119633.55    41.60     0.00   439055    19473        0   458528
 2016 328 13476     2.55     0.00     0.00119636.09    41.60     0.00   439064    19474        0   458539
 2016 329 13477     2.69     0.00     0.00119638.79    41.60     0.00   439074    19475        0   458549
 2016 330 13478     2.74     0.00     0.00119641.53    41.60     0.00   439084    19476        0   458560
 2016 331 13479     2.77     0.00     0.00119644.30    41.60     0.00   439095    19477        0   458571
 2016 332 13480     2.93     0.00     0.00119647.23    41.60     0.00   439105    19478        0   458583
 2016 333 13481     3.47     0.00     0.00119650.70    41.61     0.00   439118    19478        0   458596
 2016 334 13482     3.34     0.00     0.00119654.04    41.61     0.00   439130    19479        0   458609
 2016 335 13483     3.15     0.00     0.00119657.19    41.61     0.00   439142    19480        0   458621
 2016 336 13484     3.08     0.00     0.00119660.27    41.61     0.00   439153    19480        0   458634
 2016 337 13485     3.03     0.00     0.00119663.30    41.61     0.00   439164    19481        0   458646
 2016 338 13486     3.11     0.00     0.00119666.41    41.61     0.00   439176    19482        0   458658
 2016 339 13487     3.27     0.00     0.00119669.67    41.62     0.00   439188    19483        0   458671
 2016 340 13488     3.30     0.00     0.00119672.97    41.62     0.00   439200    19484        0   458684
 2016 341 13489     3.33     0.00     0.00119676.30    41.62     0.00   439212    19485        0   458697
 2016 342 13490     3.39     0.00     0.00119679.70    41.62     0.00   439225    19486        0   458710
 2016 343 13491     3.36     0.00     0.00119683.06    41.62     0.00   439237    19487        0   458724
 2016 344 13492     3.33     0.00     0.00119686.40    41.63     0.00   439249    19488        0   458737
 2016 345 13493     3.26     0.00     0.00119689.66    41.63     0.00   439261    19489        0   458750
 2016 346 13494     3.28     0.00     0.00119692.94    41.63     0.00   439273    19489        0   458763
 2016 347 13495     3.25     0.00     0.00119696.19    41.63     0.00   439285    19490        0   458775
 2016 348 13496     3.32     0.00     0.00119699.51    41.63     0.00   439297    19491        0   458789
 2016 349 13497     3.46     0.00     0.00119702.97    41.64     0.00   439310    19492        0   458802
 2016 350 13498     3.40     0.00     0.00119706.38    41.64     0.00   439322    19493        0   458815
 2016 351 13499     3.25     0.00     0.00119709.62    41.64     0.00   439334    19494        0   458828
 2016 352 13500     3.17     0.00     0.00119712.79    41.64     0.00   439346    19495        0   458841
 2016 353 13501     3.13     0.00     0.00119715.92    41.64     0.00   439357    19496        0   458853
 2016 354 13502     3.25     0.00     0.00119719.17    41.65     0.00   439369    19497        0   458866
 2016 355 13503     4.00     0.00     0.00119723.17    41.65     0.00   439384    19497        0   458881
 2016 356 13504     4.29     0.00     0.00119727.46    41.65     0.00   439400    19497        0   458897
 2016 357 13505     4.11     0.00     0.00119731.57    41.65     0.00   439415    19498        0   458913
 2016 358 13506     4.08     0.00     0.00119735.65    41.65     0.00   439430    19499        0   458929
 2016 359 13507     4.35     0.00     0.00119740.00    41.65     0.00   439446    19499        0   458945
 2016 360 13508     4.14     0.00     0.00119744.14    41.65     0.00   439461    19500        0   458961
 2016 361 13509     3.96     0.00     0.00119748.09    41.65     0.00   439476    19501        0   458976
 2016 362 13510     4.09     0.00     0.00119752.19    41.65     0.00   439491    19501        0   458991
 2016 363 13511     3.68     0.00     0.00119755.87    41.66     0.00   439504    19501        0   459005
 2016 364 13512     3.58     0.00     0.00119759.45    41.66     0.00   439517    19502        0   459019
 2016 365 13513     3.45     0.00     0.00119762.91    41.66     0.00   439530    19502        0   459032
