*Surface Mulch daily output file

*DSSAT Cropping System Model Ver. 4.8.0.027 -release  FEB 01, 2024 15:59:10

*RUN   1        : MARANDU11299              PRFRM048 SPPI7902    1
 MODEL          : PRFRM048 - Brachiaria
 EXPERIMENT     : SPPI7902 BR
 DATA PATH      : C:/DSSAT48/Brachiaria/
 TREATMENT  1   : MARANDU11299              PRFRM048
  
@YEAR DOY   DAS    MCFD   MDEPD    MWAD    MWTD
 1980 001     0   0.000    0.00       0    0.00
 1980 002     1   0.000    0.00       0    0.00
 1980 003     2   0.000    0.00       0    0.00
 1980 004     3   0.000    0.00       0    0.00
 1980 005     4   0.000    0.00       0    0.00
 1980 006     5   0.000    0.00       0    0.00
 1980 007     6   0.000    0.00       0    0.00
 1980 008     7   0.000    0.00       0    0.00
 1980 009     8   0.000    0.00       0    0.00
 1980 010     9   0.000    0.00       0    0.00
 1980 011    10   0.000    0.00       0    0.00
 1980 012    11   0.000    0.00       0    0.00
 1980 013    12   0.000    0.00       0    0.00
 1980 014    13   0.000    0.00       0    0.00
 1980 015    14   0.000    0.00       0    0.00
 1980 016    15   0.000    0.00       0    0.00
 1980 017    16   0.000    0.00       0    0.00
 1980 018    17   0.000    0.00       0    0.00
 1980 019    18   0.000    0.00       0    0.00
 1980 020    19   0.000    0.00       0    0.00
 1980 021    20   0.000    0.00       0    0.00
 1980 022    21   0.000    0.00       0    0.00
 1980 023    22   0.000    0.00       0    0.00
 1980 024    23   0.000    0.00       0    0.00
 1980 025    24   0.000    0.00       0    0.00
 1980 026    25   0.000    0.00       0    0.00
 1980 027    26   0.000    0.00       0    0.00
 1980 028    27   0.000    0.00       0    0.00
 1980 029    28   0.000    0.00       0    0.00
 1980 030    29   0.000    0.00       0    0.00
 1980 031    30   0.000    0.00       0    0.00
 1980 032    31   0.000    0.00       0    0.00
 1980 033    32   0.000    0.00       0    0.00
 1980 034    33   0.000    0.00       0    0.00
 1980 035    34   0.000    0.00       0    0.00
 1980 036    35   0.000    0.00       0    0.00
 1980 037    36   0.000    0.00       0    0.00
 1980 038    37   0.000    0.00       0    0.00
 1980 039    38   0.000    0.00       0    0.00
 1980 040    39   0.000    0.00       0    0.00
 1980 041    40   0.000    0.00       0    0.00
 1980 042    41   0.000    0.00       0    0.00
 1980 043    42   0.000    0.00       0    0.00
 1980 044    43   0.000    0.00       0    0.00
 1980 045    44   0.000    0.00       0    0.00
 1980 046    45   0.000    0.00       0    0.00
 1980 047    46   0.000    0.00       0    0.00
 1980 048    47   0.000    0.00       0    0.00
 1980 049    48   0.000    0.00       0    0.00
 1980 050    49   0.000    0.00       0    0.00
 1980 051    50   0.000    0.00       0    0.00
 1980 052    51   0.000    0.00       0    0.00
 1980 053    52   0.000    0.00       0    0.00
 1980 054    53   0.000    0.00       0    0.00
 1980 055    54   0.000    0.00       0    0.00
 1980 056    55   0.000    0.00       0    0.00
 1980 057    56   0.000    0.00       0    0.00
 1980 058    57   0.000    0.00       0    0.00
 1980 059    58   0.000    0.00       0    0.00
 1980 060    59   0.000    0.00       0    0.00
 1980 061    60   0.000    0.00       0    0.00
 1980 062    61   0.000    0.00       0    0.00
 1980 063    62   0.000    0.00       0    0.00
 1980 064    63   0.000    0.00       0    0.00
 1980 065    64   0.000    0.00       0    0.00
 1980 066    65   0.000    0.00       0    0.00
 1980 067    66   0.000    0.00       0    0.00
 1980 068    67   0.000    0.00       0    0.00
 1980 069    68   0.000    0.00       0    0.00
 1980 070    69   0.000    0.00       0    0.00
 1980 071    70   0.000    0.00       0    0.00
 1980 072    71   0.000    0.00       0    0.00
 1980 073    72   0.000    0.00       0    0.00
 1980 074    73   0.000    0.00       0    0.00
 1980 075    74   0.000    0.00       0    0.00
 1980 076    75   0.000    0.00       0    0.00
 1980 077    76   0.000    0.00       0    0.00
 1980 078    77   0.000    0.00       0    0.00
 1980 079    78   0.000    0.00       0    0.00
 1980 080    79   0.000    0.00       0    0.00
 1980 081    80   0.000    0.00       0    0.00
 1980 082    81   0.000    0.00       0    0.00
 1980 083    82   0.000    0.00       0    0.00
 1980 084    83   0.000    0.00       0    0.00
 1980 085    84   0.000    0.00       0    0.00
 1980 086    85   0.000    0.00       0    0.00
 1980 087    86   0.000    0.00       0    0.00
 1980 088    87   0.000    0.00       0    0.00
 1980 089    88   0.000    0.00       0    0.00
 1980 090    89   0.000    0.00       0    0.00
 1980 091    90   0.000    0.00       0    0.00
 1980 092    91   0.000    0.00       0    0.00
 1980 093    92   0.000    0.00       0    0.00
 1980 094    93   0.000    0.00       0    0.00
 1980 095    94   0.000    0.00       0    0.00
 1980 096    95   0.000    0.00       0    0.00
 1980 097    96   0.000    0.00       0    0.00
 1980 098    97   0.000    0.00       0    0.00
 1980 099    98   0.000    0.00       0    0.00
 1980 100    99   0.000    0.00       0    0.00
 1980 101   100   0.000    0.00       0    0.00
 1980 102   101   0.000    0.00       0    0.00
 1980 103   102   0.000    0.00       0    0.00
 1980 104   103   0.000    0.00       0    0.00
 1980 105   104   0.000    0.00       0    0.00
 1980 106   105   0.000    0.00       0    0.00
 1980 107   106   0.000    0.00       0    0.00
 1980 108   107   0.000    0.00       0    0.00
 1980 109   108   0.000    0.00       0    0.00
 1980 110   109   0.000    0.00       0    0.00
 1980 111   110   0.000    0.00       0    0.00
 1980 112   111   0.000    0.00       0    0.00
 1980 113   112   0.000    0.00       0    0.00
 1980 114   113   0.000    0.00       0    0.00
 1980 115   114   0.000    0.00       0    0.00
 1980 116   115   0.000    0.00       0    0.00
 1980 117   116   0.000    0.00       0    0.00
 1980 118   117   0.000    0.00       0    0.00
 1980 119   118   0.000    0.00       0    0.00
 1980 120   119   0.000    0.00       0    0.00
 1980 121   120   0.000    0.00       0    0.00
 1980 122   121   0.000    0.00       0    0.00
 1980 123   122   0.000    0.00       0    0.00
 1980 124   123   0.000    0.00       0    0.00
 1980 125   124   0.000    0.00       0    0.00
 1980 126   125   0.000    0.00       0    0.00
 1980 127   126   0.000    0.00       0    0.00
 1980 128   127   0.000    0.00       0    0.00
 1980 129   128   0.000    0.00       0    0.00
 1980 130   129   0.000    0.00       0    0.00
 1980 131   130   0.000    0.00       0    0.00
 1980 132   131   0.000    0.00       0    0.00
 1980 133   132   0.000    0.00       0    0.00
 1980 134   133   0.000    0.00       0    0.00
 1980 135   134   0.000    0.00       0    0.00
 1980 136   135   0.000    0.00       0    0.00
 1980 137   136   0.000    0.00       0    0.00
 1980 138   137   0.000    0.00       0    0.00
 1980 139   138   0.000    0.00       0    0.00
 1980 140   139   0.000    0.00       0    0.00
 1980 141   140   0.000    0.00       0    0.00
 1980 142   141   0.000    0.00       0    0.00
 1980 143   142   0.000    0.00       0    0.00
 1980 144   143   0.000    0.00       0    0.00
 1980 145   144   0.000    0.00       0    0.00
 1980 146   145   0.000    0.00       0    0.00
 1980 147   146   0.000    0.00       0    0.00
 1980 148   147   0.000    0.00       0    0.00
 1980 149   148   0.000    0.00       0    0.00
 1980 150   149   0.000    0.00       0    0.00
 1980 151   150   0.000    0.00       0    0.00
 1980 152   151   0.000    0.00       0    0.00
 1980 153   152   0.000    0.00       0    0.00
 1980 154   153   0.000    0.00       0    0.00
 1980 155   154   0.000    0.00       0    0.00
 1980 156   155   0.000    0.00       0    0.00
 1980 157   156   0.000    0.00       0    0.00
 1980 158   157   0.000    0.00       0    0.00
 1980 159   158   0.000    0.00       0    0.00
 1980 160   159   0.000    0.00       0    0.00
 1980 161   160   0.000    0.00       0    0.00
 1980 162   161   0.000    0.00       0    0.00
 1980 163   162   0.000    0.00       0    0.00
 1980 164   163   0.000    0.00       0    0.00
 1980 165   164   0.000    0.00       0    0.00
 1980 166   165   0.000    0.00       0    0.00
 1980 167   166   0.000    0.00       0    0.00
 1980 168   167   0.000    0.00       0    0.00
 1980 169   168   0.000    0.00       0    0.00
 1980 170   169   0.000    0.00       0    0.00
 1980 171   170   0.000    0.00       0    0.00
 1980 172   171   0.000    0.00       0    0.00
 1980 173   172   0.000    0.00       0    0.00
 1980 174   173   0.000    0.00       0    0.00
 1980 175   174   0.000    0.00       0    0.00
 1980 176   175   0.000    0.00       0    0.00
 1980 177   176   0.000    0.00       0    0.00
 1980 178   177   0.000    0.00       0    0.00
 1980 179   178   0.000    0.00       0    0.00
 1980 180   179   0.000    0.00       0    0.00
 1980 181   180   0.000    0.00       0    0.00
 1980 182   181   0.000    0.00       0    0.00
 1980 183   182   0.000    0.00       0    0.00
 1980 184   183   0.000    0.00       0    0.00
 1980 185   184   0.000    0.00       0    0.00
 1980 186   185   0.000    0.00       0    0.00
 1980 187   186   0.000    0.00       0    0.00
 1980 188   187   0.000    0.00       0    0.00
 1980 189   188   0.000    0.00       0    0.00
 1980 190   189   0.000    0.00       0    0.00
 1980 191   190   0.000    0.00       0    0.00
 1980 192   191   0.000    0.00       0    0.00
 1980 193   192   0.000    0.00       0    0.00
 1980 194   193   0.000    0.00       0    0.00
 1980 195   194   0.000    0.00       0    0.00
 1980 196   195   0.000    0.00       0    0.00
 1980 197   196   0.000    0.00       0    0.00
 1980 198   197   0.000    0.00       0    0.00
 1980 199   198   0.000    0.00       0    0.00
 1980 200   199   0.000    0.00       0    0.00
 1980 201   200   0.000    0.00       0    0.00
 1980 202   201   0.000    0.00       0    0.00
 1980 203   202   0.000    0.00       0    0.00
 1980 204   203   0.000    0.00       0    0.00
 1980 205   204   0.000    0.00       0    0.00
 1980 206   205   0.000    0.00       0    0.00
 1980 207   206   0.000    0.00       0    0.00
 1980 208   207   0.000    0.00       0    0.00
 1980 209   208   0.000    0.00       0    0.00
 1980 210   209   0.000    0.00       0    0.00
 1980 211   210   0.000    0.00       0    0.00
 1980 212   211   0.000    0.00       0    0.00
 1980 213   212   0.000    0.00       0    0.00
 1980 214   213   0.000    0.00       0    0.00
 1980 215   214   0.000    0.00       0    0.00
 1980 216   215   0.000    0.00       0    0.00
 1980 217   216   0.000    0.00       0    0.00
 1980 218   217   0.000    0.00       0    0.00
 1980 219   218   0.000    0.00       0    0.00
 1980 220   219   0.000    0.00       0    0.00
 1980 221   220   0.000    0.00       0    0.00
 1980 222   221   0.000    0.00       0    0.00
 1980 223   222   0.000    0.00       0    0.00
 1980 224   223   0.000    0.00       0    0.00
 1980 225   224   0.000    0.00       0    0.00
 1980 226   225   0.000    0.00       0    0.00
 1980 227   226   0.000    0.00       0    0.00
 1980 228   227   0.000    0.00       0    0.00
 1980 229   228   0.000    0.00       0    0.00
 1980 230   229   0.000    0.00       0    0.00
 1980 231   230   0.000    0.00       0    0.00
 1980 232   231   0.000    0.00       0    0.00
 1980 233   232   0.000    0.00       0    0.00
 1980 234   233   0.000    0.00       0    0.00
 1980 235   234   0.000    0.00       0    0.00
 1980 236   235   0.000    0.00       0    0.00
 1980 237   236   0.000    0.00       0    0.00
 1980 238   237   0.000    0.00       0    0.00
 1980 239   238   0.000    0.00       0    0.00
 1980 240   239   0.000    0.00       0    0.00
 1980 241   240   0.000    0.00       0    0.00
 1980 242   241   0.000    0.00       0    0.00
 1980 243   242   0.000    0.00       0    0.00
 1980 244   243   0.000    0.00       0    0.00
 1980 245   244   0.000    0.00       0    0.00
 1980 246   245   0.000    0.00       0    0.00
 1980 247   246   0.000    0.00       0    0.00
 1980 248   247   0.000    0.00       0    0.00
 1980 249   248   0.000    0.00       0    0.00
 1980 250   249   0.000    0.00       0    0.00
 1980 251   250   0.000    0.00       0    0.00
 1980 252   251   0.000    0.00       0    0.00
 1980 253   252   0.000    0.00       0    0.00
 1980 254   253   0.000    0.00       0    0.00
 1980 255   254   0.000    0.00       0    0.00
 1980 256   255   0.000    0.00       0    0.00
 1980 257   256   0.000    0.00       0    0.00
 1980 258   257   0.000    0.00       0    0.00
 1980 259   258   0.000    0.00       0    0.00
 1980 260   259   0.000    0.00       0    0.00
 1980 261   260   0.000    0.00       0    0.00
 1980 262   261   0.000    0.00       0    0.00
 1980 263   262   0.000    0.00       0    0.00
 1980 264   263   0.000    0.00       0    0.00
 1980 265   264   0.000    0.00       0    0.00
 1980 266   265   0.000    0.00       0    0.00
 1980 267   266   0.000    0.00       0    0.00
 1980 268   267   0.000    0.00       0    0.00
 1980 269   268   0.000    0.00       0    0.00
 1980 270   269   0.000    0.00       0    0.00
 1980 271   270   0.000    0.00       0    0.00
 1980 272   271   0.000    0.00       0    0.00
 1980 273   272   0.000    0.00       0    0.00
 1980 274   273   0.000    0.00       0    0.00
 1980 275   274   0.000    0.00       0    0.00
 1980 276   275   0.000    0.00       0    0.00
 1980 277   276   0.000    0.00       0    0.00
 1980 278   277   0.000    0.00       0    0.00
 1980 279   278   0.000    0.00       0    0.00
 1980 280   279   0.000    0.00       0    0.00
 1980 281   280   0.000    0.00       0    0.00
 1980 282   281   0.000    0.00       0    0.00
 1980 283   282   0.000    0.00       0    0.00
 1980 284   283   0.000    0.00       0    0.00
 1980 285   284   0.000    0.00       0    0.00
 1980 286   285   0.000    0.00       0    0.00
 1980 287   286   0.000    0.00       0    0.00
 1980 288   287   0.000    0.00       0    0.00
 1980 289   288   0.004    0.00       9    0.00
 1980 290   289   0.011    0.00      28    0.00
 1980 291   290   0.020    0.00      51    0.00
 1980 292   291   0.032    0.00      80    0.00
 1980 293   292   0.042    0.00     108    0.01
 1980 294   293   0.052    0.00     133    0.04
 1980 295   294   0.061    0.00     156    0.04
 1980 296   295   0.070    0.00     182    0.05
 1980 297   296   0.077    0.00     200    0.05
 1980 298   297   0.081    0.01     212    0.05
 1980 299   298   0.085    0.01     221    0.04
 1980 300   299   0.094    0.01     246    0.08
 1980 301   300   0.108    0.01     286    0.08
 1980 302   301   0.120    0.01     321    0.08
 1980 303   302   0.134    0.01     359    0.11
 1980 304   303   0.145    0.02     391    0.12
 1980 305   304   0.152    0.02     413    0.13
 1980 306   305   0.156    0.02     425    0.12
 1980 307   306   0.161    0.02     438    0.10
 1980 308   307   0.169    0.02     464    0.09
 1980 309   308   0.183    0.03     505    0.08
 1980 310   309   0.197    0.03     550    0.18
 1980 311   310   0.211    0.04     593    0.17
 1980 312   311   0.220    0.04     621    0.19
 1980 313   312   0.230    0.05     655    0.21
 1980 314   313   0.239    0.05     684    0.22
 1980 315   314   0.247    0.05     710    0.24
 1980 316   315   0.253    0.06     730    0.24
 1980 317   316   0.260    0.06     752    0.19
 1980 318   317   0.267    0.07     777    0.27
 1980 319   318   0.276    0.07     808    0.21
 1980 320   319   0.290    0.08     857    0.30
 1980 321   320   0.307    0.09     917    0.28
 1980 322   321   0.324    0.10     980    0.20
 1980 323   322   0.332    0.11    1007    0.25
 1980 324   323   0.343    0.12    1051    0.34
 1980 325   324   0.356    0.13    1100    0.37
 1980 326   325   0.370    0.14    1155    0.39
 1980 327   326   0.382    0.15    1202    0.41
 1980 328   327   0.397    0.16    1265    0.39
 1980 329   328   0.409    0.17    1313    0.29
 1980 330   329   0.416    0.18    1346    0.19
 1980 331   330   0.424    0.19    1378    0.12
 1980 332   331   0.430    0.20    1405    0.08
 1980 333   332   0.443    0.21    1462    0.05
 1980 334   333   0.456    0.23    1522    0.52
 1980 335   334   0.470    0.25    1585    0.48
 1980 336   335   0.485    0.27    1659    0.57
 1980 337   336   0.499    0.29    1728    0.59
 1980 338   337   0.513    0.31    1800    0.61
 1980 339   338   0.525    0.33    1863    0.61
 1980 340   339   0.536    0.35    1920    0.54
 1980 341   340   0.545    0.36    1971    0.45
 1980 342   341   0.555    0.38    2026    0.38
 1980 343   342   0.565    0.40    2084    0.29
 1980 344   343   0.577    0.42    2149    0.20
 1980 345   344   0.589    0.45    2223    0.12
 1980 346   345   0.602    0.48    2301    0.81
 1980 347   346   0.614    0.50    2377    0.78
 1980 348   347   0.622    0.53    2430    0.83
 1980 349   348   0.631    0.55    2490    0.85
 1980 350   349   0.639    0.57    2546    0.87
 1980 351   350   0.648    0.59    2609    0.80
 1980 352   351   0.655    0.61    2658    0.76
 1980 353   352   0.661    0.63    2708    0.93
 1980 354   353   0.670    0.66    2773    0.94
 1980 355   354   0.676    0.68    2818    0.89
 1980 356   355   0.680    0.69    2852    0.83
 1980 357   356   0.684    0.70    2877    0.77
 1980 358   357   0.687    0.71    2907    0.71
 1980 359   358   0.693    0.73    2954    0.65
 1980 360   359   0.699    0.75    3005    0.57
 1980 361   360   0.706    0.78    3064    0.52
 1980 362   361   0.714    0.81    3130    0.48
 1980 363   362   0.721    0.83    3193    0.43
 1980 364   363   0.728    0.86    3257    0.37
 1980 365   364   0.736    0.89    3333    0.30
 1980 366   365   0.744    0.93    3405    0.23
 1981 001   366   0.751    0.96    3480    0.17
 1981 002   367   0.760    1.00    3564    0.11
 1981 003   368   0.766    1.03    3635    1.26
 1981 004   369   0.773    1.06    3706    1.25
 1981 005   370   0.777    1.08    3750    1.18
 1981 006   371   0.781    1.11    3800    1.22
 1981 007   372   0.786    1.13    3856    1.30
 1981 008   373   0.789    1.15    3885    0.43
 1981 009   374   0.784    1.12    3833    0.14
 1981 010   375   0.780    1.10    3791    0.05
 1981 011   376   0.778    1.09    3761    0.09
 1981 012   377   0.776    1.08    3744    1.29
 1981 013   378   0.775    1.07    3725    0.52
 1981 014   379   0.773    1.06    3705    1.26
 1981 015   380   0.770    1.05    3675    0.43
 1981 016   381   0.766    1.03    3635    0.38
 1981 017   382   0.763    1.02    3604    1.31
 1981 018   383   0.762    1.01    3584    0.66
 1981 019   384   0.760    1.00    3564    1.38
 1981 020   385   0.757    0.99    3539    0.79
 1981 021   386   0.755    0.98    3517    0.28
 1981 022   387   0.752    0.96    3485    0.10
 1981 023   388   0.749    0.95    3460    0.04
 1981 024   389   0.749    0.95    3452    1.22
 1981 025   390   0.749    0.95    3452    0.54
 1981 026   391   0.749    0.95    3453    0.20
 1981 027   392   0.749    0.95    3458    0.07
 1981 028   393   0.750    0.96    3470    1.23
 1981 029   394   0.752    0.96    3482    0.63
 1981 030   395   0.751    0.96    3472    0.23
 1981 031   396   0.749    0.95    3453    0.08
 1981 032   397   0.748    0.94    3445    1.23
 1981 033   398   0.748    0.95    3449    0.48
 1981 034   399   0.749    0.95    3455    0.55
 1981 035   400   0.749    0.95    3451    0.20
 1981 036   401   0.746    0.94    3428    0.07
 1981 037   402   0.743    0.92    3396    0.03
 1981 038   403   0.741    0.91    3377    0.53
 1981 039   404   0.741    0.91    3376    0.20
 1981 040   405   0.742    0.92    3384    1.22
 1981 041   406   0.742    0.92    3384    0.62
 1981 042   407   0.741    0.91    3378    0.23
 1981 043   408   0.742    0.92    3387    1.23
 1981 044   409   0.743    0.92    3394    0.55
 1981 045   410   0.742    0.92    3389    1.31
 1981 046   411   0.740    0.91    3367    0.71
 1981 047   412   0.739    0.91    3361    1.34
 1981 048   413   0.738    0.90    3353    0.78
 1981 049   414   0.738    0.90    3349    1.35
 1981 050   415   0.737    0.90    3343    0.82
 1981 051   416   0.736    0.89    3329    0.31
 1981 052   417   0.734    0.89    3313    0.11
 1981 053   418   0.733    0.88    3299    0.04
 1981 054   419   0.732    0.88    3295    0.02
 1981 055   420   0.733    0.88    3300    0.01
 1981 056   421   0.734    0.89    3314    0.00
 1981 057   422   0.736    0.90    3334    0.66
 1981 058   423   0.739    0.91    3357    0.75
 1981 059   424   0.738    0.90    3349    1.12
 1981 060   425   0.736    0.89    3333    0.42
 1981 061   426   0.734    0.88    3307    0.97
 1981 062   427   0.731    0.87    3285    0.84
 1981 063   428   0.730    0.87    3270    1.12
 1981 064   429   0.728    0.86    3253    0.43
 1981 065   430   0.725    0.85    3232    0.16
 1981 066   431   0.724    0.84    3218    0.06
 1981 067   432   0.723    0.84    3209    0.02
 1981 068   433   0.722    0.84    3203    0.01
 1981 069   434   0.723    0.84    3206    0.00
 1981 070   435   0.724    0.84    3217    0.29
 1981 071   436   0.726    0.85    3236    0.76
 1981 072   437   0.728    0.86    3256    0.84
 1981 073   438   0.729    0.87    3267    1.09
 1981 074   439   0.730    0.87    3271    0.99
 1981 075   440   0.728    0.86    3259    0.59
 1981 076   441   0.726    0.85    3238    0.23
 1981 077   442   0.724    0.85    3221    0.09
 1981 078   443   0.724    0.85    3221    0.11
 1981 079   444   0.726    0.85    3233    0.04
 1981 080   445   0.726    0.85    3240    0.02
 1981 081   446   0.727    0.86    3249    0.01
 1981 082   447   0.729    0.87    3268    0.00
 1981 083   448   0.733    0.88    3301    0.00
 1981 084   449   0.736    0.90    3334    0.00
 1981 085   450   0.739    0.91    3363    0.00
 1981 086   451   0.744    0.93    3403    0.00
 1981 087   452   0.748    0.95    3447    0.00
 1981 088   453   0.753    0.97    3497    0.75
 1981 089   454   0.757    0.99    3542    0.75
 1981 090   455   0.758    0.99    3550    1.31
 1981 091   456   0.758    0.99    3542    0.68
 1981 092   457   0.756    0.98    3530    0.24
 1981 093   458   0.754    0.97    3509    1.29
 1981 094   459   0.752    0.97    3491    0.46
 1981 095   460   0.751    0.96    3472    0.17
 1981 096   461   0.750    0.95    3463    0.06
 1981 097   462   0.750    0.95    3466    0.02
 1981 098   463   0.752    0.96    3483    0.01
 1981 099   464   0.754    0.97    3506    0.00
 1981 100   465   0.756    0.98    3528    0.30
 1981 101   466   0.758    0.99    3552    1.04
 1981 102   467   0.758    0.99    3551    0.93
 1981 103   468   0.758    0.99    3546    0.49
 1981 104   469   0.757    0.98    3533    0.25
 1981 105   470   0.755    0.98    3516    0.09
 1981 106   471   0.754    0.97    3501    0.03
 1981 107   472   0.752    0.96    3490    0.01
 1981 108   473   0.752    0.96    3489    0.00
 1981 109   474   0.753    0.97    3498    0.00
 1981 110   475   0.755    0.98    3516    0.00
 1981 111   476   0.757    0.99    3538    0.23
 1981 112   477   0.760    1.00    3563    1.09
 1981 113   478   0.760    1.00    3571    1.00
 1981 114   479   0.760    1.00    3565    0.73
 1981 115   480   0.758    0.99    3544    1.14
 1981 116   481   0.756    0.98    3528    1.18
 1981 117   482   0.756    0.98    3531    1.25
 1981 118   483   0.757    0.99    3535    1.05
 1981 119   484   0.756    0.98    3530    0.80
 1981 120   485   0.755    0.98    3519    0.53
 1981 121   486   0.754    0.97    3509    0.27
 1981 122   487   0.753    0.97    3500    0.10
 1981 123   488   0.753    0.97    3498    0.04
 1981 124   489   0.754    0.97    3508    0.01
 1981 125   490   0.756    0.98    3523    1.23
 1981 126   491   0.759    0.99    3553    1.06
 1981 127   492   0.761    1.00    3574    0.92
 1981 128   493   0.763    1.01    3598    0.63
 1981 129   494   0.765    1.02    3616    0.44
 1981 130   495   0.765    1.03    3624    1.26
 1981 131   496   0.766    1.03    3631    1.28
 1981 132   497   0.768    1.04    3651    1.25
 1981 133   498   0.770    1.05    3675    1.30
 1981 134   499   0.772    1.06    3697    1.33
 1981 135   500   0.772    1.06    3700    1.31
 1981 136   501   0.771    1.06    3689    1.24
 1981 137   502   0.771    1.05    3683    1.06
 1981 138   503   0.772    1.06    3691    1.30
 1981 139   504   0.773    1.06    3707    1.30
 1981 140   505   0.775    1.07    3730    1.35
 1981 141   506   0.774    1.07    3719    1.20
 1981 142   507   0.773    1.06    3708    1.05
 1981 143   508   0.774    1.07    3715    0.87
 1981 144   509   0.775    1.08    3734    1.31
 1981 145   510   0.777    1.08    3752    1.38
 1981 146   511   0.778    1.09    3763    1.29
 1981 147   512   0.777    1.08    3752    1.18
 1981 148   513   0.775    1.08    3732    0.78
 1981 149   514   0.773    1.07    3712    0.35
 1981 150   515   0.772    1.06    3700    0.12
 1981 151   516   0.771    1.06    3689    0.04
 1981 152   517   0.770    1.05    3678    1.30
 1981 153   518   0.770    1.05    3675    1.10
 1981 154   519   0.769    1.04    3661    1.23
 1981 155   520   0.767    1.03    3638    0.99
 1981 156   521   0.765    1.02    3616    0.74
 1981 157   522   0.763    1.01    3597    0.53
 1981 158   523   0.762    1.01    3586    0.40
 1981 159   524   0.760    1.00    3566    0.33
 1981 160   525   0.758    0.99    3548    0.12
 1981 161   526   0.757    0.99    3535    0.04
 1981 162   527   0.755    0.98    3519    0.09
 1981 163   528   0.754    0.97    3502    0.03
 1981 164   529   0.752    0.96    3486    0.01
 1981 165   530   0.750    0.95    3468    0.15
 1981 166   531   0.748    0.95    3450    0.06
 1981 167   532   0.748    0.94    3446    0.77
 1981 168   533   0.746    0.94    3428    1.07
 1981 169   534   0.744    0.93    3409    1.02
 1981 170   535   0.743    0.92    3394    0.78
 1981 171   536   0.742    0.92    3383    0.63
 1981 172   537   0.740    0.91    3369    0.45
 1981 173   538   0.740    0.91    3364    0.28
 1981 174   539   0.738    0.90    3350    1.16
 1981 175   540   0.738    0.90    3344    1.13
 1981 176   541   0.737    0.90    3338    1.20
 1981 177   542   0.737    0.90    3335    1.08
 1981 178   543   0.739    0.90    3355    1.22
 1981 179   544   0.740    0.91    3371    1.21
 1981 180   545   0.741    0.92    3379    1.17
 1981 181   546   0.742    0.92    3385    1.18
 1981 182   547   0.742    0.92    3389    1.24
 1981 183   548   0.740    0.91    3367    1.17
 1981 184   549   0.737    0.90    3343    0.98
 1981 185   550   0.736    0.89    3328    0.80
 1981 186   551   0.734    0.89    3314    0.61
 1981 187   552   0.733    0.88    3303    0.41
 1981 188   553   0.733    0.88    3297    0.21
 1981 189   554   0.732    0.88    3291    0.08
 1981 190   555   0.732    0.87    3287    0.03
 1981 191   556   0.731    0.87    3284    0.01
 1981 192   557   0.731    0.87    3283    0.95
 1981 193   558   0.731    0.87    3278    0.93
 1981 194   559   0.732    0.88    3292    1.22
 1981 195   560   0.733    0.88    3303    1.09
 1981 196   561   0.736    0.89    3331    1.19
 1981 197   562   0.739    0.91    3357    1.21
 1981 198   563   0.739    0.91    3360    1.20
 1981 199   564   0.737    0.90    3340    1.12
 1981 200   565   0.736    0.89    3326    1.22
 1981 201   566   0.734    0.88    3308    1.15
 1981 202   567   0.733    0.88    3297    1.14
 1981 203   568   0.731    0.87    3287    0.99
 1981 204   569   0.730    0.87    3274    1.04
 1981 205   570   0.728    0.86    3259    1.16
 1981 206   571   0.727    0.86    3245    0.88
 1981 207   572   0.726    0.85    3233    0.62
 1981 208   573   0.725    0.85    3224    0.25
 1981 209   574   0.724    0.84    3218    0.53
 1981 210   575   0.723    0.84    3211    0.96
 1981 211   576   0.724    0.84    3219    1.17
 1981 212   577   0.724    0.85    3222    1.14
 1981 213   578   0.725    0.85    3229    1.04
 1981 214   579   0.726    0.85    3236    0.78
 1981 215   580   0.727    0.86    3244    0.39
 1981 216   581   0.728    0.86    3257    0.15
 1981 217   582   0.729    0.87    3267    0.06
 1981 218   583   0.730    0.87    3278    1.16
 1981 219   584   0.730    0.87    3275    0.95
 1981 220   585   0.730    0.87    3275    1.06
 1981 221   586   0.729    0.87    3266    0.78
 1981 222   587   0.726    0.85    3239    0.45
 1981 223   588   0.724    0.85    3221    0.17
 1981 224   589   0.723    0.84    3209    0.07
 1981 225   590   0.721    0.83    3195    0.03
 1981 226   591   0.720    0.83    3185    0.01
 1981 227   592   0.719    0.83    3174    0.00
 1981 228   593   0.719    0.82    3171    0.00
 1981 229   594   0.719    0.83    3177    0.00
 1981 230   595   0.720    0.83    3184    0.00
 1981 231   596   0.720    0.83    3182    0.00
 1981 232   597   0.719    0.82    3172    0.07
 1981 233   598   0.718    0.82    3165    0.03
 1981 234   599   0.718    0.82    3167    0.01
 1981 235   600   0.719    0.82    3171    0.00
 1981 236   601   0.720    0.83    3182    0.00
 1981 237   602   0.721    0.83    3195    1.11
 1981 238   603   0.721    0.83    3195    0.91
 1981 239   604   0.722    0.84    3197    1.12
 1981 240   605   0.721    0.83    3194    0.79
 1981 241   606   0.721    0.83    3188    0.54
 1981 242   607   0.721    0.83    3195    0.28
 1981 243   608   0.721    0.83    3193    0.11
 1981 244   609   0.720    0.83    3180    1.14
 1981 245   610   0.718    0.82    3166    1.01
 1981 246   611   0.717    0.82    3159    1.10
 1981 247   612   0.718    0.82    3163    1.00
 1981 248   613   0.718    0.82    3161    0.66
 1981 249   614   0.718    0.82    3164    0.31
 1981 250   615   0.719    0.82    3169    0.12
 1981 251   616   0.721    0.83    3190    0.05
 1981 252   617   0.725    0.85    3223    0.02
 1981 253   618   0.729    0.86    3260    1.13
 1981 254   619   0.729    0.86    3262    0.98
 1981 255   620   0.729    0.87    3265    1.11
 1981 256   621   0.731    0.87    3279    1.19
 1981 257   622   0.730    0.87    3277    1.14
 1981 258   623   0.731    0.87    3284    1.14
 1981 259   624   0.730    0.87    3273    1.02
 1981 260   625   0.729    0.87    3267    0.39
 1981 261   626   0.729    0.86    3263    0.15
 1981 262   627   0.730    0.87    3274    1.18
 1981 263   628   0.730    0.87    3273    0.82
 1981 264   629   0.730    0.87    3271    0.31
 1981 265   630   0.728    0.86    3255    0.12
 1981 266   631   0.726    0.85    3239    0.55
 1981 267   632   0.726    0.85    3234    0.28
 1981 268   633   0.726    0.85    3234    0.18
 1981 269   634   0.727    0.85    3242    0.51
 1981 270   635   0.728    0.86    3257    0.19
 1981 271   636   0.730    0.87    3275    1.17
 1981 272   637   0.732    0.88    3291    0.79
 1981 273   638   0.729    0.86    3264    0.37
 1981 274   639   0.726    0.85    3233    0.14
 1981 275   640   0.723    0.84    3211    0.05
 1981 276   641   0.723    0.84    3208    0.02
 1981 277   642   0.724    0.85    3222    1.13
 1981 278   643   0.724    0.84    3218    0.75
 1981 279   644   0.724    0.84    3214    1.08
 1981 280   645   0.724    0.85    3219    0.95
 1981 281   646   0.723    0.84    3213    0.37
 1981 282   647   0.722    0.84    3200    0.14
 1981 283   648   0.720    0.83    3185    0.05
 1981 284   649   0.719    0.83    3175    0.02
 1981 285   650   0.719    0.82    3170    0.08
 1981 286   651   0.719    0.82    3171    0.03
 1981 287   652   0.719    0.82    3172    0.01
 1981 288   653   0.720    0.83    3179    0.00
 1981 289   654   0.722    0.84    3200    0.00
 1981 290   655   0.723    0.84    3210    0.00
 1981 291   656   0.722    0.84    3202    0.00
 1981 292   657   0.722    0.84    3201    0.00
 1981 293   658   0.723    0.84    3210    0.00
 1981 294   659   0.725    0.85    3228    0.00
 1981 295   660   0.727    0.86    3249    0.44
 1981 296   661   0.730    0.87    3270    0.17
 1981 297   662   0.733    0.88    3297    0.06
 1981 298   663   0.737    0.90    3339    0.02
 1981 299   664   0.742    0.92    3387    1.17
 1981 300   665   0.746    0.93    3422    0.60
 1981 301   666   0.748    0.94    3445    0.22
 1981 302   667   0.751    0.96    3471    0.08
 1981 303   668   0.754    0.97    3508    0.03
 1981 304   669   0.759    0.99    3554    0.01
 1981 305   670   0.764    1.02    3606    0.61
 1981 306   671   0.769    1.04    3659    0.87
 1981 307   672   0.771    1.05    3684    1.11
 1981 308   673   0.772    1.06    3699    1.13
 1981 309   674   0.773    1.06    3708    1.44
 1981 310   675   0.774    1.07    3713    1.32
 1981 311   676   0.774    1.07    3719    0.92
 1981 312   677   0.774    1.07    3716    0.31
 1981 313   678   0.774    1.07    3714    0.11
 1981 314   679   0.774    1.07    3721    0.04
 1981 315   680   0.775    1.08    3733    0.01
 1981 316   681   0.776    1.08    3742    0.00
 1981 317   682   0.776    1.08    3741    0.00
 1981 318   683   0.777    1.08    3748    1.31
 1981 319   684   0.776    1.08    3742    0.45
 1981 320   685   0.776    1.08    3736    1.39
 1981 321   686   0.775    1.07    3729    0.48
 1981 322   687   0.774    1.07    3720    1.40
 1981 323   688   0.773    1.07    3710    0.70
 1981 324   689   0.773    1.06    3702    1.43
 1981 325   690   0.772    1.06    3698    0.49
 1981 326   691   0.773    1.06    3704    0.17
 1981 327   692   0.773    1.06    3706    0.06
 1981 328   693   0.773    1.06    3707    0.02
 1981 329   694   0.774    1.07    3713    0.01
 1981 330   695   0.773    1.07    3712    0.00
 1981 331   696   0.774    1.07    3718    0.00
 1981 332   697   0.775    1.08    3733    0.00
 1981 333   698   0.778    1.09    3757    0.08
 1981 334   699   0.780    1.10    3784    0.26
 1981 335   700   0.783    1.12    3823    1.20
 1981 336   701   0.785    1.13    3845    0.57
 1981 337   702   0.785    1.13    3846    0.19
 1981 338   703   0.786    1.13    3855    0.06
 1981 339   704   0.788    1.14    3878    1.36
 1981 340   705   0.791    1.16    3917    0.78
 1981 341   706   0.794    1.18    3953    0.49
 1981 342   707   0.795    1.19    3967    0.16
 1981 343   708   0.796    1.19    3977    0.05
 1981 344   709   0.798    1.20    3998    0.02
 1981 345   710   0.797    1.20    3989    0.32
 1981 346   711   0.797    1.20    3991    0.10
 1981 347   712   0.799    1.20    4006    0.03
 1981 348   713   0.801    1.22    4032    1.41
 1981 349   714   0.802    1.23    4049    0.48
 1981 350   715   0.802    1.22    4043    1.50
 1981 351   716   0.801    1.22    4035    0.48
 1981 352   717   0.801    1.22    4040    0.15
 1981 353   718   0.803    1.23    4062    0.05
 1981 354   719   0.805    1.25    4091    1.43
 1981 355   720   0.808    1.26    4122    0.87
 1981 356   721   0.809    1.27    4133    0.45
 1981 357   722   0.808    1.26    4123    1.52
 1981 358   723   0.808    1.26    4120    1.04
 1981 359   724   0.809    1.27    4133    0.33
 1981 360   725   0.810    1.27    4146    0.10
 1981 361   726   0.811    1.28    4170    0.03
 1981 362   727   0.814    1.30    4200    0.09
 1981 363   728   0.816    1.31    4230    0.03
 1981 364   729   0.818    1.33    4265    0.01
 1981 365   730   0.821    1.35    4302    1.49
 1982 001   731   0.822    1.36    4316    1.06
 1982 002   732   0.821    1.35    4297    0.48
 1982 003   733   0.819    1.34    4280    0.15
 1982 004   734   0.819    1.34    4275    0.37
 1982 005   735   0.820    1.34    4287    1.34
 1982 006   736   0.822    1.35    4309    0.74
 1982 007   737   0.824    1.37    4336    0.22
 1982 008   738   0.823    1.36    4328    1.55
 1982 009   739   0.822    1.36    4319    0.59
 1982 010   740   0.822    1.35    4309    1.60
 1982 011   741   0.821    1.35    4302    0.48
 1982 012   742   0.820    1.34    4284    0.15
 1982 013   743   0.818    1.33    4265    0.04
 1982 014   744   0.818    1.33    4261    0.01
 1982 015   745   0.819    1.34    4278    0.00
 1982 016   746   0.822    1.35    4308    0.00
 1982 017   747   0.824    1.37    4348    0.00
 1982 018   748   0.827    1.39    4391    0.00
 1982 019   749   0.830    1.42    4435    0.00
 1982 020   750   0.833    1.44    4479    0.00
 1982 021   751   0.837    1.47    4536    0.00
 1982 022   752   0.841    1.50    4603    1.59
 1982 023   753   0.843    1.51    4628    0.48
 1982 024   754   0.843    1.52    4634    0.13
 1982 025   755   0.845    1.53    4657    0.04
 1982 026   756   0.847    1.54    4691    0.01
 1982 027   757   0.849    1.56    4732    0.00
 1982 028   758   0.852    1.59    4785    0.00
 1982 029   759   0.856    1.62    4849    1.67
 1982 030   760   0.856    1.63    4850    0.76
 1982 031   761   0.855    1.61    4827    1.79
 1982 032   762   0.854    1.61    4813    1.42
 1982 033   763   0.853    1.60    4797    1.60
 1982 034   764   0.853    1.60    4792    2.03
 1982 035   765   0.852    1.59    4781    0.61
 1982 036   766   0.850    1.57    4742    0.17
 1982 037   767   0.847    1.55    4697    0.05
 1982 038   768   0.845    1.53    4665    0.01
 1982 039   769   0.844    1.52    4651    0.00
 1982 040   770   0.844    1.52    4649    1.63
 1982 041   771   0.843    1.51    4631    0.46
 1982 042   772   0.843    1.51    4626    1.68
 1982 043   773   0.843    1.51    4621    0.74
 1982 044   774   0.842    1.51    4618    1.72
 1982 045   775   0.842    1.51    4615    1.12
 1982 046   776   0.841    1.50    4604    0.32
 1982 047   777   0.841    1.49    4591    1.65
 1982 048   778   0.841    1.50    4596    0.94
 1982 049   779   0.841    1.50    4603    0.44
 1982 050   780   0.841    1.50    4596    0.46
 1982 051   781   0.840    1.49    4586    1.59
 1982 052   782   0.840    1.49    4584    1.35
 1982 053   783   0.841    1.50    4600    1.46
 1982 054   784   0.841    1.50    4602    0.93
 1982 055   785   0.841    1.50    4594    1.53
 1982 056   786   0.840    1.49    4576    1.47
 1982 057   787   0.839    1.48    4566    1.61
 1982 058   788   0.839    1.48    4561    0.81
 1982 059   789   0.839    1.48    4562    1.71
 1982 060   790   0.839    1.48    4573    1.46
 1982 061   791   0.840    1.49    4580    1.73
 1982 062   792   0.840    1.49    4580    1.16
 1982 063   793   0.839    1.48    4572    0.33
 1982 064   794   0.837    1.47    4539    0.10
 1982 065   795   0.835    1.45    4507    0.03
 1982 066   796   0.834    1.44    4483    0.01
 1982 067   797   0.833    1.43    4470    0.00
 1982 068   798   0.832    1.43    4464    0.08
 1982 069   799   0.832    1.43    4465    0.52
 1982 070   800   0.833    1.43    4472    0.15
 1982 071   801   0.833    1.44    4476    0.38
 1982 072   802   0.834    1.44    4482    0.11
 1982 073   803   0.834    1.44    4488    1.58
 1982 074   804   0.834    1.45    4495    0.87
 1982 075   805   0.834    1.44    4491    1.70
 1982 076   806   0.834    1.44    4491    1.26
 1982 077   807   0.834    1.44    4494    1.66
 1982 078   808   0.835    1.45    4499    0.88
 1982 079   809   0.834    1.45    4496    0.25
 1982 080   810   0.834    1.44    4487    0.07
 1982 081   811   0.833    1.44    4476    0.02
 1982 082   812   0.833    1.43    4470    0.01
 1982 083   813   0.833    1.43    4470    0.00
 1982 084   814   0.833    1.44    4477    0.00
 1982 085   815   0.834    1.44    4490    0.00
 1982 086   816   0.835    1.45    4505    1.57
 1982 087   817   0.835    1.45    4507    1.11
 1982 088   818   0.833    1.44    4480    1.09
 1982 089   819   0.832    1.43    4461    0.61
 1982 090   820   0.831    1.42    4448    0.18
 1982 091   821   0.831    1.42    4446    0.05
 1982 092   822   0.830    1.41    4432    0.02
 1982 093   823   0.829    1.41    4419    0.00
 1982 094   824   0.828    1.40    4406    0.08
 1982 095   825   0.828    1.40    4394    1.49
 1982 096   826   0.827    1.39    4387    0.69
 1982 097   827   0.826    1.38    4374    0.62
 1982 098   828   0.825    1.38    4356    0.18
 1982 099   829   0.823    1.36    4332    0.05
 1982 100   830   0.822    1.35    4313    0.02
 1982 101   831   0.821    1.35    4298    0.00
 1982 102   832   0.820    1.34    4292    0.08
 1982 103   833   0.821    1.35    4294    0.03
 1982 104   834   0.821    1.35    4303    1.51
 1982 105   835   0.820    1.34    4285    1.05
 1982 106   836   0.818    1.33    4259    1.04
 1982 107   837   0.815    1.31    4221    1.41
 1982 108   838   0.813    1.30    4197    1.47
 1982 109   839   0.813    1.29    4190    1.43
 1982 110   840   0.813    1.30    4197    1.06
 1982 111   841   0.814    1.30    4203    0.65
 1982 112   842   0.813    1.30    4194    0.22
 1982 113   843   0.812    1.29    4182    0.07
 1982 114   844   0.812    1.29    4174    0.02
 1982 115   845   0.812    1.29    4175    0.01
 1982 116   846   0.812    1.29    4183    0.57
 1982 117   847   0.813    1.29    4186    0.51
 1982 118   848   0.813    1.29    4185    0.24
 1982 119   849   0.813    1.29    4189    0.07
 1982 120   850   0.813    1.30    4194    0.02
 1982 121   851   0.813    1.30    4198    0.01
 1982 122   852   0.814    1.30    4209    1.06
 1982 123   853   0.814    1.30    4206    0.88
 1982 124   854   0.813    1.29    4189    1.08
 1982 125   855   0.812    1.29    4180    1.14
 1982 126   856   0.812    1.29    4178    0.89
 1982 127   857   0.813    1.29    4188    0.61
 1982 128   858   0.813    1.30    4198    0.42
 1982 129   859   0.814    1.30    4207    1.43
 1982 130   860   0.815    1.31    4222    1.46
 1982 131   861   0.816    1.31    4230    1.49
 1982 132   862   0.816    1.32    4238    1.24
 1982 133   863   0.817    1.32    4247    1.44
 1982 134   864   0.818    1.33    4265    1.63
 1982 135   865   0.818    1.33    4262    1.44
 1982 136   866   0.817    1.32    4242    1.54
 1982 137   867   0.816    1.31    4230    1.36
 1982 138   868   0.818    1.33    4254    1.61
 1982 139   869   0.818    1.33    4257    1.44
 1982 140   870   0.817    1.32    4244    1.26
 1982 141   871   0.815    1.31    4221    1.09
 1982 142   872   0.813    1.30    4197    0.92
 1982 143   873   0.812    1.29    4174    0.74
 1982 144   874   0.811    1.28    4164    0.57
 1982 145   875   0.811    1.28    4159    0.82
 1982 146   876   0.810    1.28    4150    0.90
 1982 147   877   0.809    1.27    4137    0.55
 1982 148   878   0.807    1.26    4110    0.20
 1982 149   879   0.805    1.24    4085    0.06
 1982 150   880   0.803    1.23    4067    0.02
 1982 151   881   0.802    1.23    4050    0.01
 1982 152   882   0.801    1.22    4036    0.00
 1982 153   883   0.800    1.21    4023    0.00
 1982 154   884   0.800    1.21    4022    0.00
 1982 155   885   0.799    1.21    4013    1.28
 1982 156   886   0.798    1.20    4004    1.03
 1982 157   887   0.797    1.20    3990    0.76
 1982 158   888   0.796    1.19    3972    0.48
 1982 159   889   0.795    1.18    3957    0.23
 1982 160   890   0.794    1.18    3954    1.43
 1982 161   891   0.794    1.18    3953    1.30
 1982 162   892   0.794    1.18    3952    1.35
 1982 163   893   0.794    1.18    3948    1.37
 1982 164   894   0.793    1.17    3938    1.37
 1982 165   895   0.793    1.17    3933    1.41
 1982 166   896   0.793    1.17    3939    1.44
 1982 167   897   0.791    1.16    3919    1.19
 1982 168   898   0.790    1.15    3901    0.97
 1982 169   899   0.789    1.15    3884    1.34
 1982 170   900   0.789    1.15    3886    1.38
 1982 171   901   0.790    1.15    3897    1.37
 1982 172   902   0.789    1.15    3891    1.38
 1982 173   903   0.788    1.14    3881    1.37
 1982 174   904   0.787    1.14    3866    1.25
 1982 175   905   0.786    1.13    3849    1.06
 1982 176   906   0.784    1.12    3835    0.88
 1982 177   907   0.783    1.12    3820    0.69
 1982 178   908   0.782    1.11    3805    1.12
 1982 179   909   0.781    1.11    3798    1.31
 1982 180   910   0.782    1.11    3806    1.29
 1982 181   911   0.781    1.10    3795    1.10
 1982 182   912   0.780    1.10    3783    0.87
 1982 183   913   0.778    1.09    3768    0.62
 1982 184   914   0.778    1.09    3758    1.25
 1982 185   915   0.778    1.09    3762    1.40
 1982 186   916   0.779    1.09    3772    1.36
 1982 187   917   0.778    1.09    3763    1.31
 1982 188   918   0.777    1.09    3755    1.33
 1982 189   919   0.776    1.08    3740    1.30
 1982 190   920   0.774    1.07    3718    1.31
 1982 191   921   0.773    1.06    3703    1.16
 1982 192   922   0.772    1.06    3691    0.94
 1982 193   923   0.770    1.05    3678    1.32
 1982 194   924   0.770    1.05    3678    1.28
 1982 195   925   0.770    1.05    3669    1.28
 1982 196   926   0.768    1.04    3653    1.04
 1982 197   927   0.767    1.04    3645    1.29
 1982 198   928   0.767    1.04    3646    1.30
 1982 199   929   0.769    1.04    3660    1.26
 1982 200   930   0.768    1.04    3654    1.09
 1982 201   931   0.767    1.04    3647    0.82
 1982 202   932   0.768    1.04    3653    1.21
 1982 203   933   0.770    1.05    3675    1.36
 1982 204   934   0.769    1.05    3668    1.24
 1982 205   935   0.769    1.04    3665    1.33
 1982 206   936   0.768    1.04    3656    1.15
 1982 207   937   0.769    1.04    3658    0.93
 1982 208   938   0.769    1.05    3666    0.60
 1982 209   939   0.770    1.05    3671    1.30
 1982 210   940   0.770    1.05    3674    1.28
 1982 211   941   0.768    1.04    3651    0.94
 1982 212   942   0.766    1.03    3628    0.62
 1982 213   943   0.764    1.02    3610    0.44
 1982 214   944   0.763    1.01    3595    0.22
 1982 215   945   0.761    1.00    3576    0.08
 1982 216   946   0.759    1.00    3560    0.03
 1982 217   947   0.758    0.99    3549    0.09
 1982 218   948   0.758    0.99    3544    1.20
 1982 219   949   0.759    1.00    3557    1.07
 1982 220   950   0.758    0.99    3543    1.20
 1982 221   951   0.758    0.99    3549    1.26
 1982 222   952   0.758    0.99    3545    1.09
 1982 223   953   0.757    0.98    3533    0.74
 1982 224   954   0.756    0.98    3523    0.29
 1982 225   955   0.756    0.98    3522    0.10
 1982 226   956   0.756    0.98    3523    1.25
 1982 227   957   0.757    0.99    3535    0.99
 1982 228   958   0.756    0.98    3525    0.63
 1982 229   959   0.754    0.97    3509    0.30
 1982 230   960   0.753    0.97    3491    0.26
 1982 231   961   0.750    0.96    3470    0.09
 1982 232   962   0.749    0.95    3451    0.03
 1982 233   963   0.748    0.94    3442    0.01
 1982 234   964   0.748    0.94    3445    0.00
 1982 235   965   0.746    0.94    3429    0.00
 1982 236   966   0.745    0.93    3419    0.00
 1982 237   967   0.747    0.94    3438    0.00
 1982 238   968   0.751    0.96    3474    1.20
 1982 239   969   0.754    0.97    3510    0.89
 1982 240   970   0.756    0.98    3529    0.45
 1982 241   971   0.758    0.99    3547    1.33
 1982 242   972   0.760    1.00    3565    1.28
 1982 243   973   0.759    1.00    3559    0.92
 1982 244   974   0.757    0.98    3535    0.56
 1982 245   975   0.755    0.98    3517    0.20
 1982 246   976   0.755    0.97    3512    0.07
 1982 247   977   0.756    0.98    3528    1.24
 1982 248   978   0.758    0.99    3547    0.92
 1982 249   979   0.757    0.99    3541    0.52
 1982 250   980   0.756    0.98    3522    0.18
 1982 251   981   0.755    0.98    3513    0.07
 1982 252   982   0.754    0.97    3505    0.02
 1982 253   983   0.754    0.97    3510    1.23
 1982 254   984   0.756    0.98    3527    0.96
 1982 255   985   0.757    0.99    3536    1.26
 1982 256   986   0.758    0.99    3548    1.00
 1982 257   987   0.759    1.00    3558    0.48
 1982 258   988   0.760    1.00    3572    0.17
 1982 259   989   0.762    1.01    3593    0.06
 1982 260   990   0.763    1.01    3597    1.27
 1982 261   991   0.763    1.01    3596    0.84
 1982 262   992   0.761    1.00    3573    1.20
 1982 263   993   0.758    0.99    3551    1.04
 1982 264   994   0.757    0.98    3533    0.95
 1982 265   995   0.755    0.98    3520    1.21
 1982 266   996   0.755    0.98    3516    0.75
 1982 267   997   0.755    0.98    3514    1.29
 1982 268   998   0.755    0.98    3517    1.19
 1982 269   999   0.756    0.98    3527    0.70
 1982 270  1000   0.757    0.99    3537    1.33
 1982 271  1001   0.756    0.98    3525    1.04
 1982 272  1002   0.754    0.97    3509    1.32
 1982 273  1003   0.753    0.97    3492    0.74
 1982 274  1004   0.752    0.96    3488    1.37
 1982 275  1005   0.752    0.96    3490    0.92
 1982 276  1006   0.753    0.97    3500    0.41
 1982 277  1007   0.753    0.97    3498    0.90
 1982 278  1008   0.753    0.97    3501    0.91
 1982 279  1009   0.752    0.96    3487    0.33
 1982 280  1010   0.750    0.96    3469    0.12
 1982 281  1011   0.749    0.95    3461    0.04
 1982 282  1012   0.748    0.95    3449    0.02
 1982 283  1013   0.747    0.94    3440    0.01
 1982 284  1014   0.748    0.94    3444    0.00
 1982 285  1015   0.748    0.95    3450    0.75
 1982 286  1016   0.749    0.95    3455    0.73
 1982 287  1017   0.747    0.94    3439    0.27
 1982 288  1018   0.745    0.93    3421    0.10
 1982 289  1019   0.745    0.93    3412    1.22
 1982 290  1020   0.745    0.93    3416    0.53
 1982 291  1021   0.747    0.94    3440    1.31
 1982 292  1022   0.747    0.94    3432    0.48
 1982 293  1023   0.746    0.94    3427    1.30
 1982 294  1024   0.748    0.94    3443    1.02
 1982 295  1025   0.750    0.95    3466    1.18
 1982 296  1026   0.751    0.96    3479    1.25
 1982 297  1027   0.753    0.97    3492    0.89
 1982 298  1028   0.752    0.96    3488    1.32
 1982 299  1029   0.751    0.96    3479    0.48
 1982 300  1030   0.751    0.96    3476    0.17
 1982 301  1031   0.751    0.96    3477    0.06
 1982 302  1032   0.751    0.96    3477    1.23
 1982 303  1033   0.752    0.96    3488    0.47
 1982 304  1034   0.752    0.96    3486    0.17
 1982 305  1035   0.752    0.96    3481    1.26
 1982 306  1036   0.752    0.96    3485    0.87
 1982 307  1037   0.753    0.97    3500    1.20
 1982 308  1038   0.755    0.98    3513    0.98
 1982 309  1039   0.754    0.97    3507    1.57
 1982 310  1040   0.753    0.97    3500    0.99
 1982 311  1041   0.754    0.97    3506    0.96
 1982 312  1042   0.755    0.98    3517    1.25
 1982 313  1043   0.755    0.97    3512    0.45
 1982 314  1044   0.754    0.97    3504    1.32
 1982 315  1045   0.755    0.98    3515    0.74
 1982 316  1046   0.755    0.98    3514    0.27
 1982 317  1047   0.753    0.97    3497    0.10
 1982 318  1048   0.751    0.96    3480    0.26
 1982 319  1049   0.750    0.95    3467    1.11
 1982 320  1050   0.750    0.95    3466    0.67
 1982 321  1051   0.750    0.95    3466    0.24
 1982 322  1052   0.750    0.95    3466    1.26
 1982 323  1053   0.751    0.96    3474    0.56
 1982 324  1054   0.752    0.97    3491    0.20
 1982 325  1055   0.753    0.97    3498    0.07
 1982 326  1056   0.752    0.96    3483    0.03
 1982 327  1057   0.752    0.96    3483    0.01
 1982 328  1058   0.753    0.97    3491    0.00
 1982 329  1059   0.754    0.97    3510    0.00
 1982 330  1060   0.757    0.99    3541    0.00
 1982 331  1061   0.761    1.00    3578    0.00
 1982 332  1062   0.765    1.03    3623    0.00
 1982 333  1063   0.770    1.05    3676    1.27
 1982 334  1064   0.775    1.08    3732    0.61
 1982 335  1065   0.780    1.10    3785    1.43
 1982 336  1066   0.783    1.12    3818    1.07
 1982 337  1067   0.783    1.12    3824    0.40
 1982 338  1068   0.783    1.12    3820    0.13
 1982 339  1069   0.784    1.12    3828    0.04
 1982 340  1070   0.786    1.13    3851    0.33
 1982 341  1071   0.789    1.15    3889    1.16
 1982 342  1072   0.788    1.15    3883    0.60
 1982 343  1073   0.789    1.15    3884    0.20
 1982 344  1074   0.788    1.14    3879    0.07
 1982 345  1075   0.789    1.15    3889    0.02
 1982 346  1076   0.791    1.16    3917    0.01
 1982 347  1077   0.794    1.18    3951    0.56
 1982 348  1078   0.797    1.20    3990    1.01
 1982 349  1079   0.798    1.20    3993    1.09
 1982 350  1080   0.797    1.19    3985    0.35
 1982 351  1081   0.797    1.19    3984    1.46
 1982 352  1082   0.797    1.20    3989    0.76
 1982 353  1083   0.799    1.21    4013    1.53
 1982 354  1084   0.800    1.22    4030    0.61
 1982 355  1085   0.801    1.22    4033    0.19
 1982 356  1086   0.801    1.22    4031    0.06
 1982 357  1087   0.801    1.22    4042    0.02
 1982 358  1088   0.802    1.23    4050    0.25
 1982 359  1089   0.804    1.24    4070    0.08
 1982 360  1090   0.806    1.25    4102    0.02
 1982 361  1091   0.810    1.27    4150    0.25
 1982 362  1092   0.814    1.30    4202    0.97
 1982 363  1093   0.818    1.33    4258    0.57
 1982 364  1094   0.822    1.36    4320    1.51
 1982 365  1095   0.825    1.37    4352    1.44
 1983 001  1096   0.826    1.38    4373    1.03
 1983 002  1097   0.827    1.39    4386    0.64
 1983 003  1098   0.827    1.39    4380    0.30
 1983 004  1099   0.827    1.39    4391    0.10
 1983 005  1100   0.829    1.40    4409    0.11
 1983 006  1101   0.829    1.41    4418    1.53
 1983 007  1102   0.828    1.40    4403    0.54
 1983 008  1103   0.827    1.39    4388    0.74
 1983 009  1104   0.826    1.39    4379    0.22
 1983 010  1105   0.827    1.39    4381    0.07
 1983 011  1106   0.828    1.40    4399    1.54
 1983 012  1107   0.829    1.41    4421    0.46
 1983 013  1108   0.831    1.42    4444    0.13
 1983 014  1109   0.833    1.44    4476    0.95
 1983 015  1110   0.835    1.45    4512    0.99
 1983 016  1111   0.836    1.46    4517    0.45
 1983 017  1112   0.835    1.45    4508    0.30
 1983 018  1113   0.835    1.45    4507    1.62
 1983 019  1114   0.835    1.45    4508    1.02
 1983 020  1115   0.836    1.46    4515    1.66
 1983 021  1116   0.836    1.46    4524    0.86
 1983 022  1117   0.837    1.46    4532    0.25
 1983 023  1118   0.837    1.47    4539    0.07
 1983 024  1119   0.838    1.47    4544    0.02
 1983 025  1120   0.839    1.48    4561    0.01
 1983 026  1121   0.840    1.49    4586    1.60
 1983 027  1122   0.841    1.50    4601    1.26
 1983 028  1123   0.841    1.50    4603    1.40
 1983 029  1124   0.842    1.50    4605    1.83
 1983 030  1125   0.842    1.51    4620    1.49
 1983 031  1126   0.844    1.52    4640    1.71
 1983 032  1127   0.844    1.52    4646    1.52
 1983 033  1128   0.843    1.52    4636    1.69
 1983 034  1129   0.843    1.51    4621    0.48
 1983 035  1130   0.840    1.49    4589    0.14
 1983 036  1131   0.839    1.48    4565    0.04
 1983 037  1132   0.838    1.47    4550    0.10
 1983 038  1133   0.838    1.47    4546    0.11
 1983 039  1134   0.838    1.47    4548    0.03
 1983 040  1135   0.838    1.48    4555    0.01
 1983 041  1136   0.839    1.48    4566    1.51
 1983 042  1137   0.840    1.49    4582    0.53
 1983 043  1138   0.841    1.50    4600    0.74
 1983 044  1139   0.841    1.50    4600    0.21
 1983 045  1140   0.841    1.50    4594    1.64
 1983 046  1141   0.840    1.49    4581    1.28
 1983 047  1142   0.840    1.49    4580    1.64
 1983 048  1143   0.840    1.49    4585    1.17
 1983 049  1144   0.840    1.49    4588    0.33
 1983 050  1145   0.841    1.50    4596    0.10
 1983 051  1146   0.841    1.50    4605    1.54
 1983 052  1147   0.842    1.50    4613    1.24
 1983 053  1148   0.842    1.51    4616    1.31
 1983 054  1149   0.843    1.51    4630    1.73
 1983 055  1150   0.844    1.52    4645    1.85
 1983 056  1151   0.844    1.52    4650    1.59
 1983 057  1152   0.844    1.52    4645    1.60
 1983 058  1153   0.844    1.52    4641    1.42
 1983 059  1154   0.843    1.51    4630    0.99
 1983 060  1155   0.842    1.50    4613    1.44
 1983 061  1156   0.842    1.50    4607    1.10
 1983 062  1157   0.841    1.50    4604    0.31
 1983 063  1158   0.840    1.49    4585    0.09
 1983 064  1159   0.839    1.48    4568    0.03
 1983 065  1160   0.838    1.48    4554    0.01
 1983 066  1161   0.838    1.47    4545    0.00
 1983 067  1162   0.837    1.47    4542    0.00
 1983 068  1163   0.838    1.47    4544    0.00
 1983 069  1164   0.838    1.48    4556    1.59
 1983 070  1165   0.837    1.47    4542    1.12
 1983 071  1166   0.836    1.46    4519    1.27
 1983 072  1167   0.835    1.45    4509    0.39
 1983 073  1168   0.834    1.44    4490    0.11
 1983 074  1169   0.833    1.43    4469    0.03
 1983 075  1170   0.832    1.43    4458    0.51
 1983 076  1171   0.831    1.42    4452    0.81
 1983 077  1172   0.831    1.42    4450    1.34
 1983 078  1173   0.830    1.41    4432    0.64
 1983 079  1174   0.829    1.40    4413    0.19
 1983 080  1175   0.827    1.39    4389    0.06
 1983 081  1176   0.826    1.38    4370    0.02
 1983 082  1177   0.825    1.38    4363    0.00
 1983 083  1178   0.826    1.38    4368    0.08
 1983 084  1179   0.826    1.39    4376    0.03
 1983 085  1180   0.827    1.39    4386    0.01
 1983 086  1181   0.828    1.40    4399    0.00
 1983 087  1182   0.829    1.41    4417    0.00
 1983 088  1183   0.830    1.42    4436    0.00
 1983 089  1184   0.831    1.42    4441    0.00
 1983 090  1185   0.831    1.42    4445    0.00
 1983 091  1186   0.831    1.42    4445    0.00
 1983 092  1187   0.831    1.42    4451    0.42
 1983 093  1188   0.832    1.43    4465    1.26
 1983 094  1189   0.833    1.43    4471    1.33
 1983 095  1190   0.832    1.43    4461    0.71
 1983 096  1191   0.831    1.42    4444    0.21
 1983 097  1192   0.830    1.41    4424    0.06
 1983 098  1193   0.828    1.40    4408    1.01
 1983 099  1194   0.828    1.40    4399    0.36
 1983 100  1195   0.827    1.39    4385    0.11
 1983 101  1196   0.826    1.39    4376    0.03
 1983 102  1197   0.826    1.38    4373    0.01
 1983 103  1198   0.826    1.39    4376    0.50
 1983 104  1199   0.826    1.38    4372    0.15
 1983 105  1200   0.825    1.37    4353    0.04
 1983 106  1201   0.823    1.37    4335    0.01
 1983 107  1202   0.822    1.36    4318    0.00
 1983 108  1203   0.821    1.35    4306    1.51
 1983 109  1204   0.821    1.35    4300    1.10
 1983 110  1205   0.821    1.35    4298    0.97
 1983 111  1206   0.820    1.34    4283    0.87
 1983 112  1207   0.818    1.33    4263    0.43
 1983 113  1208   0.817    1.32    4241    0.13
 1983 114  1209   0.815    1.31    4223    0.04
 1983 115  1210   0.814    1.31    4212    0.34
 1983 116  1211   0.815    1.31    4214    0.19
 1983 117  1212   0.815    1.31    4217    0.06
 1983 118  1213   0.815    1.31    4224    0.02
 1983 119  1214   0.816    1.32    4232    0.01
 1983 120  1215   0.816    1.31    4230    0.00
 1983 121  1216   0.815    1.31    4216    0.00
 1983 122  1217   0.814    1.31    4212    0.00
 1983 123  1218   0.815    1.31    4214    0.00
 1983 124  1219   0.816    1.31    4226    1.47
 1983 125  1220   0.816    1.32    4238    1.23
 1983 126  1221   0.817    1.32    4241    0.95
 1983 127  1222   0.816    1.31    4226    0.67
 1983 128  1223   0.815    1.31    4216    0.40
 1983 129  1224   0.814    1.30    4208    0.15
 1983 130  1225   0.813    1.30    4194    1.50
 1983 131  1226   0.813    1.29    4189    1.39
 1983 132  1227   0.813    1.29    4188    1.41
 1983 133  1228   0.812    1.29    4181    1.24
 1983 134  1229   0.811    1.28    4168    1.06
 1983 135  1230   0.811    1.28    4166    1.30
 1983 136  1231   0.811    1.28    4165    1.44
 1983 137  1232   0.812    1.29    4174    1.21
 1983 138  1233   0.811    1.28    4170    1.00
 1983 139  1234   0.810    1.28    4157    0.82
 1983 140  1235   0.810    1.28    4153    0.73
 1983 141  1236   0.810    1.28    4150    0.57
 1983 142  1237   0.809    1.27    4143    1.46
 1983 143  1238   0.809    1.27    4137    1.47
 1983 144  1239   0.809    1.27    4132    1.29
 1983 145  1240   0.808    1.26    4123    1.11
 1983 146  1241   0.807    1.25    4106    0.79
 1983 147  1242   0.805    1.25    4093    1.49
 1983 148  1243   0.805    1.24    4084    1.38
 1983 149  1244   0.804    1.24    4074    1.25
 1983 150  1245   0.802    1.23    4052    0.96
 1983 151  1246   0.800    1.22    4029    0.81
 1983 152  1247   0.798    1.20    4004    0.80
 1983 153  1248   0.797    1.19    3983    1.33
 1983 154  1249   0.795    1.19    3967    1.45
 1983 155  1250   0.794    1.18    3951    1.36
 1983 156  1251   0.793    1.17    3936    1.09
 1983 157  1252   0.792    1.16    3922    0.84
 1983 158  1253   0.791    1.16    3908    0.57
 1983 159  1254   0.789    1.15    3896    0.31
 1983 160  1255   0.788    1.15    3883    0.10
 1983 161  1256   0.787    1.14    3866    0.03
 1983 162  1257   0.785    1.13    3849    0.01
 1983 163  1258   0.784    1.12    3831    0.00
 1983 164  1259   0.783    1.11    3814    1.34
 1983 165  1260   0.782    1.11    3806    1.14
 1983 166  1261   0.781    1.10    3795    1.30
 1983 167  1262   0.780    1.10    3784    1.04
 1983 168  1263   0.779    1.10    3776    0.73
 1983 169  1264   0.779    1.09    3773    0.39
 1983 170  1265   0.779    1.10    3777    0.13
 1983 171  1266   0.780    1.10    3789    1.35
 1983 172  1267   0.782    1.11    3805    1.15
 1983 173  1268   0.782    1.11    3813    1.35
 1983 174  1269   0.782    1.11    3809    1.37
 1983 175  1270   0.780    1.10    3787    1.14
 1983 176  1271   0.778    1.09    3760    0.92
 1983 177  1272   0.776    1.08    3736    0.70
 1983 178  1273   0.774    1.07    3715    0.47
 1983 179  1274   0.772    1.06    3698    0.24
 1983 180  1275   0.771    1.05    3683    0.08
 1983 181  1276   0.769    1.05    3668    0.03
 1983 182  1277   0.768    1.04    3653    0.01
 1983 183  1278   0.767    1.03    3640    1.28
 1983 184  1279   0.767    1.04    3646    1.06
 1983 185  1280   0.766    1.03    3636    0.82
 1983 186  1281   0.766    1.03    3629    1.31
 1983 187  1282   0.765    1.02    3620    1.23
 1983 188  1283   0.765    1.02    3616    1.01
 1983 189  1284   0.764    1.02    3609    1.27
 1983 190  1285   0.763    1.01    3600    1.15
 1983 191  1286   0.761    1.01    3583    1.25
 1983 192  1287   0.760    1.00    3564    1.23
 1983 193  1288   0.758    0.99    3548    0.98
 1983 194  1289   0.757    0.99    3535    0.83
 1983 195  1290   0.756    0.98    3527    1.18
 1983 196  1291   0.757    0.99    3535    1.29
 1983 197  1292   0.757    0.98    3533    1.23
 1983 198  1293   0.755    0.98    3520    0.98
 1983 199  1294   0.754    0.97    3507    0.82
 1983 200  1295   0.753    0.97    3493    0.95
 1983 201  1296   0.751    0.96    3478    0.69
 1983 202  1297   0.750    0.95    3463    0.37
 1983 203  1298   0.749    0.95    3452    0.13
 1983 204  1299   0.747    0.94    3440    0.12
 1983 205  1300   0.746    0.94    3430    0.12
 1983 206  1301   0.745    0.93    3416    0.34
 1983 207  1302   0.744    0.93    3402    0.13
 1983 208  1303   0.742    0.92    3388    1.22
 1983 209  1304   0.741    0.92    3379    1.02
 1983 210  1305   0.741    0.91    3373    1.01
 1983 211  1306   0.740    0.91    3364    1.14
 1983 212  1307   0.738    0.90    3351    0.91
 1983 213  1308   0.737    0.90    3338    0.69
 1983 214  1309   0.735    0.89    3325    0.50
 1983 215  1310   0.734    0.89    3314    0.70
 1983 216  1311   0.733    0.88    3305    0.33
 1983 217  1312   0.733    0.88    3298    0.12
 1983 218  1313   0.732    0.88    3294    0.05
 1983 219  1314   0.732    0.88    3292    0.02
 1983 220  1315   0.732    0.88    3289    1.16
 1983 221  1316   0.730    0.87    3271    0.89
 1983 222  1317   0.728    0.86    3257    0.53
 1983 223  1318   0.728    0.86    3253    1.18
 1983 224  1319   0.729    0.86    3262    1.18
 1983 225  1320   0.730    0.87    3273    1.10
 1983 226  1321   0.731    0.87    3279    0.86
 1983 227  1322   0.730    0.87    3275    0.60
 1983 228  1323   0.729    0.86    3263    0.28
 1983 229  1324   0.727    0.86    3244    0.10
 1983 230  1325   0.725    0.85    3226    0.11
 1983 231  1326   0.724    0.84    3217    0.04
 1983 232  1327   0.723    0.84    3208    0.02
 1983 233  1328   0.721    0.83    3194    0.01
 1983 234  1329   0.720    0.83    3185    0.00
 1983 235  1330   0.720    0.83    3184    0.00
 1983 236  1331   0.721    0.83    3193    0.00
 1983 237  1332   0.723    0.84    3207    0.00
 1983 238  1333   0.726    0.85    3235    1.12
 1983 239  1334   0.729    0.86    3262    0.80
 1983 240  1335   0.731    0.87    3283    1.12
 1983 241  1336   0.734    0.88    3308    1.13
 1983 242  1337   0.736    0.89    3332    1.23
 1983 243  1338   0.736    0.89    3328    1.12
 1983 244  1339   0.733    0.88    3301    1.14
 1983 245  1340   0.730    0.87    3276    0.98
 1983 246  1341   0.729    0.86    3261    0.50
 1983 247  1342   0.728    0.86    3254    0.26
 1983 248  1343   0.728    0.86    3251    0.10
 1983 249  1344   0.728    0.86    3259    0.04
 1983 250  1345   0.729    0.86    3261    0.23
 1983 251  1346   0.726    0.85    3240    0.09
 1983 252  1347   0.724    0.84    3218    0.03
 1983 253  1348   0.722    0.84    3203    0.01
 1983 254  1349   0.721    0.83    3193    0.01
 1983 255  1350   0.720    0.83    3180    0.00
 1983 256  1351   0.719    0.82    3172    0.00
 1983 257  1352   0.719    0.82    3169    0.00
 1983 258  1353   0.719    0.83    3173    0.00
 1983 259  1354   0.719    0.83    3175    0.07
 1983 260  1355   0.720    0.83    3182    0.03
 1983 261  1356   0.720    0.83    3186    0.01
 1983 262  1357   0.721    0.83    3193    0.00
 1983 263  1358   0.720    0.83    3185    0.00
 1983 264  1359   0.720    0.83    3181    0.00
 1983 265  1360   0.720    0.83    3184    0.00
 1983 266  1361   0.721    0.83    3194    0.00
 1983 267  1362   0.724    0.84    3215    1.12
 1983 268  1363   0.726    0.85    3235    0.44
 1983 269  1364   0.729    0.86    3262    0.24
 1983 270  1365   0.732    0.88    3292    1.20
 1983 271  1366   0.735    0.89    3316    0.90
 1983 272  1367   0.736    0.89    3333    1.18
 1983 273  1368   0.736    0.89    3327    0.73
 1983 274  1369   0.734    0.88    3306    0.42
 1983 275  1370   0.732    0.88    3290    0.38
 1983 276  1371   0.731    0.87    3282    0.14
 1983 277  1372   0.732    0.88    3288    0.05
 1983 278  1373   0.734    0.89    3311    0.02
 1983 279  1374   0.737    0.90    3338    0.01
 1983 280  1375   0.739    0.91    3361    0.00
 1983 281  1376   0.742    0.92    3389    1.18
 1983 282  1377   0.745    0.93    3419    0.76
 1983 283  1378   0.746    0.94    3429    0.45
 1983 284  1379   0.743    0.93    3401    0.17
 1983 285  1380   0.741    0.92    3379    0.14
 1983 286  1381   0.741    0.91    3376    1.20
 1983 287  1382   0.743    0.92    3400    0.90
 1983 288  1383   0.746    0.93    3423    1.13
 1983 289  1384   0.748    0.95    3448    1.33
 1983 290  1385   0.750    0.95    3461    1.06
 1983 291  1386   0.750    0.95    3464    0.50
 1983 292  1387   0.749    0.95    3451    0.18
 1983 293  1388   0.749    0.95    3453    0.07
 1983 294  1389   0.750    0.95    3464    0.02
 1983 295  1390   0.751    0.96    3480    1.22
 1983 296  1391   0.752    0.96    3487    0.71
 1983 297  1392   0.750    0.95    3461    0.26
 1983 298  1393   0.747    0.94    3438    0.09
 1983 299  1394   0.747    0.94    3435    0.03
 1983 300  1395   0.748    0.94    3445    0.09
 1983 301  1396   0.750    0.96    3469    0.18
 1983 302  1397   0.754    0.97    3503    1.15
 1983 303  1398   0.756    0.98    3526    0.84
 1983 304  1399   0.756    0.98    3526    0.46
 1983 305  1400   0.756    0.98    3524    0.16
 1983 306  1401   0.755    0.98    3520    0.21
 1983 307  1402   0.756    0.98    3521    1.20
 1983 308  1403   0.758    0.99    3547    0.93
 1983 309  1404   0.761    1.00    3576    1.12
 1983 310  1405   0.763    1.02    3604    1.30
 1983 311  1406   0.766    1.03    3631    0.96
 1983 312  1407   0.768    1.04    3653    1.11
 1983 313  1408   0.770    1.05    3677    0.56
 1983 314  1409   0.772    1.06    3700    0.65
 1983 315  1410   0.772    1.06    3694    1.23
 1983 316  1411   0.771    1.05    3687    0.92
 1983 317  1412   0.771    1.05    3686    1.47
 1983 318  1413   0.771    1.05    3681    1.06
 1983 319  1414   0.770    1.05    3678    1.43
 1983 320  1415   0.770    1.05    3676    1.04
 1983 321  1416   0.771    1.05    3680    0.36
 1983 322  1417   0.771    1.05    3686    0.97
 1983 323  1418   0.771    1.06    3690    0.33
 1983 324  1419   0.771    1.05    3685    0.12
 1983 325  1420   0.770    1.05    3679    0.04
 1983 326  1421   0.770    1.05    3676    1.30
 1983 327  1422   0.768    1.04    3649    0.45
 1983 328  1423   0.767    1.03    3639    0.16
 1983 329  1424   0.768    1.04    3654    0.05
 1983 330  1425   0.770    1.05    3674    0.02
 1983 331  1426   0.771    1.06    3689    0.01
 1983 332  1427   0.773    1.06    3704    0.00
 1983 333  1428   0.776    1.08    3739    0.00
 1983 334  1429   0.780    1.10    3787    0.00
 1983 335  1430   0.785    1.13    3846    1.33
 1983 336  1431   0.787    1.14    3862    0.77
 1983 337  1432   0.785    1.13    3847    0.25
 1983 338  1433   0.785    1.13    3840    0.08
 1983 339  1434   0.786    1.13    3855    0.03
 1983 340  1435   0.789    1.15    3887    0.01
 1983 341  1436   0.792    1.17    3925    1.36
 1983 342  1437   0.795    1.18    3960    0.46
 1983 343  1438   0.794    1.18    3954    0.15
 1983 344  1439   0.793    1.17    3942    0.05
 1983 345  1440   0.792    1.17    3930    0.02
 1983 346  1441   0.792    1.17    3930    1.38
 1983 347  1442   0.792    1.17    3924    0.46
 1983 348  1443   0.791    1.16    3913    0.78
 1983 349  1444   0.791    1.16    3910    0.26
 1983 350  1445   0.791    1.16    3913    0.16
 1983 351  1446   0.792    1.17    3927    0.84
 1983 352  1447   0.794    1.18    3952    0.92
 1983 353  1448   0.796    1.19    3970    1.46
 1983 354  1449   0.797    1.19    3982    1.18
 1983 355  1450   0.798    1.20    4002    1.39
 1983 356  1451   0.800    1.21    4019    1.46
 1983 357  1452   0.800    1.21    4025    0.89
 1983 358  1453   0.801    1.22    4035    0.29
 1983 359  1454   0.802    1.23    4049    0.09
 1983 360  1455   0.803    1.23    4065    0.03
 1983 361  1456   0.805    1.24    4083    0.01
 1983 362  1457   0.807    1.25    4108    0.00
 1983 363  1458   0.809    1.27    4138    0.00
 1983 364  1459   0.812    1.29    4177    0.65
 1983 365  1460   0.815    1.31    4220    0.61
 1984 001  1461   0.818    1.33    4261    1.52
 1984 002  1462   0.821    1.35    4298    1.49
 1984 003  1463   0.823    1.36    4324    1.40
 1984 004  1464   0.824    1.37    4341    1.57
 1984 005  1465   0.825    1.38    4362    0.47
 1984 006  1466   0.824    1.37    4343    0.14
 1984 007  1467   0.822    1.36    4315    1.54
 1984 008  1468   0.821    1.35    4298    0.53
 1984 009  1469   0.820    1.34    4290    1.59
 1984 010  1470   0.820    1.34    4282    0.77
 1984 011  1471   0.819    1.34    4274    1.62
 1984 012  1472   0.818    1.33    4265    0.72
 1984 013  1473   0.818    1.33    4256    1.60
 1984 014  1474   0.818    1.33    4255    1.33
 1984 015  1475   0.818    1.33    4255    1.49
 1984 016  1476   0.817    1.32    4248    1.25
 1984 017  1477   0.817    1.32    4252    0.38
 1984 018  1478   0.818    1.33    4257    0.20
 1984 019  1479   0.818    1.33    4257    1.52
 1984 020  1480   0.818    1.33    4254    0.74
 1984 021  1481   0.817    1.32    4243    0.31
 1984 022  1482   0.816    1.31    4225    0.09
 1984 023  1483   0.815    1.31    4219    0.03
 1984 024  1484   0.815    1.31    4223    0.91
 1984 025  1485   0.816    1.32    4236    0.28
 1984 026  1486   0.817    1.32    4249    0.09
 1984 027  1487   0.818    1.33    4263    1.50
 1984 028  1488   0.819    1.34    4274    0.77
 1984 029  1489   0.819    1.34    4280    0.23
 1984 030  1490   0.820    1.34    4281    0.40
 1984 031  1491   0.820    1.34    4282    1.38
 1984 032  1492   0.819    1.34    4276    1.42
 1984 033  1493   0.820    1.34    4284    0.93
 1984 034  1494   0.819    1.34    4277    0.94
 1984 035  1495   0.818    1.33    4266    1.43
 1984 036  1496   0.817    1.32    4251    1.39
 1984 037  1497   0.816    1.32    4234    1.27
 1984 038  1498   0.814    1.30    4210    0.39
 1984 039  1499   0.812    1.29    4181    0.12
 1984 040  1500   0.811    1.28    4163    0.04
 1984 041  1501   0.811    1.28    4159    0.01
 1984 042  1502   0.811    1.28    4163    1.46
 1984 043  1503   0.812    1.29    4173    0.46
 1984 044  1504   0.812    1.29    4184    1.53
 1984 045  1505   0.813    1.29    4190    0.72
 1984 046  1506   0.813    1.30    4197    1.58
 1984 047  1507   0.814    1.30    4204    1.27
 1984 048  1508   0.814    1.30    4211    1.39
 1984 049  1509   0.815    1.31    4217    0.71
 1984 050  1510   0.815    1.31    4218    0.22
 1984 051  1511   0.815    1.31    4213    1.51
 1984 052  1512   0.815    1.31    4221    0.83
 1984 053  1513   0.816    1.32    4235    1.63
 1984 054  1514   0.817    1.32    4250    1.51
 1984 055  1515   0.818    1.33    4264    1.24
 1984 056  1516   0.819    1.33    4271    1.47
 1984 057  1517   0.819    1.34    4280    1.73
 1984 058  1518   0.820    1.34    4289    1.23
 1984 059  1519   0.820    1.35    4293    0.97
 1984 060  1520   0.820    1.35    4293    1.75
 1984 061  1521   0.821    1.35    4301    1.16
 1984 062  1522   0.820    1.34    4287    0.76
 1984 063  1523   0.819    1.33    4267    0.48
 1984 064  1524   0.817    1.32    4246    0.14
 1984 065  1525   0.816    1.31    4228    0.62
 1984 066  1526   0.815    1.31    4214    0.19
 1984 067  1527   0.814    1.30    4203    0.06
 1984 068  1528   0.813    1.30    4193    0.10
 1984 069  1529   0.813    1.29    4186    1.44
 1984 070  1530   0.812    1.29    4182    0.80
 1984 071  1531   0.811    1.28    4164    0.57
 1984 072  1532   0.809    1.27    4144    0.34
 1984 073  1533   0.808    1.26    4121    0.11
 1984 074  1534   0.807    1.25    4107    0.03
 1984 075  1535   0.807    1.25    4107    0.01
 1984 076  1536   0.807    1.26    4114    1.44
 1984 077  1537   0.808    1.26    4119    0.98
 1984 078  1538   0.807    1.26    4118    0.39
 1984 079  1539   0.806    1.25    4106    0.12
 1984 080  1540   0.806    1.25    4094    0.93
 1984 081  1541   0.805    1.24    4086    0.60
 1984 082  1542   0.805    1.24    4082    0.19
 1984 083  1543   0.805    1.25    4088    0.06
 1984 084  1544   0.806    1.25    4101    1.44
 1984 085  1545   0.807    1.25    4108    1.13
 1984 086  1546   0.807    1.26    4113    0.64
 1984 087  1547   0.807    1.26    4109    1.50
 1984 088  1548   0.807    1.26    4112    1.16
 1984 089  1549   0.808    1.26    4122    1.17
 1984 090  1550   0.807    1.26    4115    0.37
 1984 091  1551   0.806    1.25    4100    0.12
 1984 092  1552   0.804    1.24    4080    1.45
 1984 093  1553   0.803    1.23    4059    0.86
 1984 094  1554   0.802    1.23    4050    0.75
 1984 095  1555   0.801    1.22    4042    0.24
 1984 096  1556   0.800    1.21    4022    0.08
 1984 097  1557   0.799    1.20    4006    0.02
 1984 098  1558   0.798    1.20    3995    0.01
 1984 099  1559   0.797    1.19    3985    0.00
 1984 100  1560   0.797    1.20    3987    0.08
 1984 101  1561   0.798    1.20    3997    0.03
 1984 102  1562   0.799    1.20    4006    0.01
 1984 103  1563   0.799    1.21    4011    0.00
 1984 104  1564   0.799    1.21    4016    0.00
 1984 105  1565   0.800    1.21    4023    0.00
 1984 106  1566   0.801    1.22    4036    0.24
 1984 107  1567   0.802    1.23    4052    0.08
 1984 108  1568   0.803    1.24    4067    1.43
 1984 109  1569   0.804    1.24    4069    1.23
 1984 110  1570   0.804    1.24    4068    1.41
 1984 111  1571   0.804    1.24    4070    1.42
 1984 112  1572   0.805    1.24    4084    1.44
 1984 113  1573   0.806    1.25    4101    1.45
 1984 114  1574   0.807    1.26    4113    1.32
 1984 115  1575   0.807    1.26    4117    1.02
 1984 116  1576   0.806    1.25    4094    0.73
 1984 117  1577   0.803    1.23    4066    0.43
 1984 118  1578   0.802    1.23    4047    0.15
 1984 119  1579   0.801    1.22    4031    0.05
 1984 120  1580   0.800    1.22    4030    0.02
 1984 121  1581   0.800    1.21    4023    0.00
 1984 122  1582   0.800    1.21    4019    0.00
 1984 123  1583   0.799    1.21    4017    0.00
 1984 124  1584   0.800    1.21    4023    0.00
 1984 125  1585   0.801    1.22    4037    0.00
 1984 126  1586   0.803    1.23    4058    1.41
 1984 127  1587   0.804    1.24    4077    1.24
 1984 128  1588   0.805    1.25    4089    1.40
 1984 129  1589   0.806    1.25    4096    1.41
 1984 130  1590   0.806    1.25    4099    1.35
 1984 131  1591   0.806    1.25    4098    1.42
 1984 132  1592   0.805    1.25    4091    1.24
 1984 133  1593   0.803    1.23    4063    1.17
 1984 134  1594   0.801    1.22    4033    1.44
 1984 135  1595   0.798    1.20    4002    1.27
 1984 136  1596   0.797    1.19    3982    1.13
 1984 137  1597   0.795    1.18    3961    0.98
 1984 138  1598   0.794    1.18    3949    0.82
 1984 139  1599   0.793    1.17    3943    0.68
 1984 140  1600   0.794    1.18    3954    0.64
 1984 141  1601   0.795    1.18    3958    1.39
 1984 142  1602   0.795    1.19    3967    1.37
 1984 143  1603   0.797    1.20    3987    1.36
 1984 144  1604   0.799    1.21    4011    1.38
 1984 145  1605   0.800    1.21    4027    1.25
 1984 146  1606   0.801    1.22    4030    1.25
 1984 147  1607   0.801    1.22    4034    1.55
 1984 148  1608   0.801    1.22    4039    1.45
 1984 149  1609   0.801    1.22    4039    1.38
 1984 150  1610   0.801    1.22    4041    1.42
 1984 151  1611   0.800    1.21    4026    1.50
 1984 152  1612   0.797    1.20    3992    1.29
 1984 153  1613   0.795    1.18    3964    0.99
 1984 154  1614   0.794    1.18    3945    1.43
 1984 155  1615   0.793    1.17    3938    1.42
 1984 156  1616   0.793    1.17    3932    1.39
 1984 157  1617   0.792    1.17    3923    1.38
 1984 158  1618   0.791    1.16    3911    1.37
 1984 159  1619   0.790    1.15    3899    1.38
 1984 160  1620   0.788    1.15    3882    1.37
 1984 161  1621   0.787    1.14    3866    1.36
 1984 162  1622   0.786    1.13    3852    1.31
 1984 163  1623   0.785    1.13    3839    1.07
 1984 164  1624   0.784    1.12    3829    1.02
 1984 165  1625   0.783    1.11    3816    0.79
 1984 166  1626   0.781    1.11    3799    0.59
 1984 167  1627   0.780    1.10    3782    0.88
 1984 168  1628   0.778    1.09    3767    1.31
 1984 169  1629   0.778    1.09    3763    1.32
 1984 170  1630   0.778    1.09    3758    1.33
 1984 171  1631   0.777    1.08    3747    1.31
 1984 172  1632   0.776    1.08    3745    1.31
 1984 173  1633   0.777    1.08    3749    1.28
 1984 174  1634   0.777    1.09    3757    1.34
 1984 175  1635   0.777    1.09    3755    1.15
 1984 176  1636   0.776    1.08    3736    1.34
 1984 177  1637   0.774    1.07    3722    1.28
 1984 178  1638   0.774    1.07    3723    1.33
 1984 179  1639   0.773    1.07    3712    1.25
 1984 180  1640   0.772    1.06    3694    1.08
 1984 181  1641   0.770    1.05    3675    0.90
 1984 182  1642   0.769    1.04    3660    0.69
 1984 183  1643   0.768    1.04    3649    0.45
 1984 184  1644   0.768    1.04    3648    1.31
 1984 185  1645   0.768    1.04    3651    1.29
 1984 186  1646   0.768    1.04    3656    1.29
 1984 187  1647   0.768    1.04    3649    1.21
 1984 188  1648   0.769    1.04    3658    1.32
 1984 189  1649   0.768    1.04    3655    1.28
 1984 190  1650   0.767    1.03    3638    1.11
 1984 191  1651   0.765    1.03    3623    1.24
 1984 192  1652   0.766    1.03    3628    1.27
 1984 193  1653   0.767    1.03    3637    1.24
 1984 194  1654   0.768    1.04    3652    1.28
 1984 195  1655   0.768    1.04    3648    1.13
 1984 196  1656   0.765    1.03    3625    0.96
 1984 197  1657   0.763    1.01    3600    0.81
[...]
 2015 315 13098   0.000    0.00       0    0.00
 2015 316 13099   0.000    0.00       0    0.00
 2015 317 13100   0.000    0.00       0    0.00
 2015 318 13101   0.000    0.00       0    0.00
 2015 319 13102   0.000    0.00       0    0.00
 2015 320 13103   0.000    0.00       0    0.00
 2015 321 13104   0.000    0.00       0    0.00
 2015 322 13105   0.000    0.00       0    0.00
 2015 323 13106   0.000    0.00       0    0.00
 2015 324 13107   0.000    0.00       0    0.00
 2015 325 13108   0.000    0.00       0    0.00
 2015 326 13109   0.000    0.00       0    0.00
 2015 327 13110   0.000    0.00       0    0.00
 2015 328 13111   0.000    0.00       0    0.00
 2015 329 13112   0.000    0.00       0    0.00
 2015 330 13113   0.000    0.00       0    0.00
 2015 331 13114   0.000    0.00       0    0.00
 2015 332 13115   0.000    0.00       0    0.00
 2015 333 13116   0.000    0.00       0    0.00
 2015 334 13117   0.000    0.00       0    0.00
 2015 335 13118   0.000    0.00       0    0.00
 2015 336 13119   0.000    0.00       0    0.00
 2015 337 13120   0.000    0.00       0    0.00
 2015 338 13121   0.000    0.00       0    0.00
 2015 339 13122   0.000    0.00       0    0.00
 2015 340 13123   0.000    0.00       0    0.00
 2015 341 13124   0.000    0.00       0    0.00
 2015 342 13125   0.000    0.00       0    0.00
 2015 343 13126   0.000    0.00       0    0.00
 2015 344 13127   0.000    0.00       0    0.00
 2015 345 13128   0.000    0.00       0    0.00
 2015 346 13129   0.000    0.00       0    0.00
 2015 347 13130   0.000    0.00       0    0.00
 2015 348 13131   0.000    0.00       0    0.00
 2015 349 13132   0.000    0.00       0    0.00
 2015 350 13133   0.000    0.00       0    0.00
 2015 351 13134   0.000    0.00       0    0.00
 2015 352 13135   0.000    0.00       0    0.00
 2015 353 13136   0.000    0.00       0    0.00
 2015 354 13137   0.000    0.00       0    0.00
 2015 355 13138   0.000    0.00       0    0.00
 2015 356 13139   0.000    0.00       0    0.00
 2015 357 13140   0.000    0.00       0    0.00
 2015 358 13141   0.000    0.00       0    0.00
 2015 359 13142   0.000    0.00       0    0.00
 2015 360 13143   0.000    0.00       0    0.00
 2015 361 13144   0.000    0.00       0    0.00
 2015 362 13145   0.000    0.00       0    0.00
 2015 363 13146   0.000    0.00       0    0.00
 2015 364 13147   0.000    0.00       0    0.00
 2015 365 13148   0.000    0.00       0    0.00
 2016 001 13149   0.000    0.00       0    0.00
 2016 002 13150   0.000    0.00       0    0.00
 2016 003 13151   0.000    0.00       0    0.00
 2016 004 13152   0.000    0.00       0    0.00
 2016 005 13153   0.000    0.00       0    0.00
 2016 006 13154   0.000    0.00       0    0.00
 2016 007 13155   0.000    0.00       0    0.00
 2016 008 13156   0.000    0.00       0    0.00
 2016 009 13157   0.000    0.00       0    0.00
 2016 010 13158   0.000    0.00       0    0.00
 2016 011 13159   0.000    0.00       0    0.00
 2016 012 13160   0.000    0.00       0    0.00
 2016 013 13161   0.000    0.00       0    0.00
 2016 014 13162   0.000    0.00       0    0.00
 2016 015 13163   0.000    0.00       0    0.00
 2016 016 13164   0.000    0.00       0    0.00
 2016 017 13165   0.000    0.00       0    0.00
 2016 018 13166   0.000    0.00       0    0.00
 2016 019 13167   0.000    0.00       0    0.00
 2016 020 13168   0.000    0.00       0    0.00
 2016 021 13169   0.000    0.00       0    0.00
 2016 022 13170   0.000    0.00       0    0.00
 2016 023 13171   0.000    0.00       0    0.00
 2016 024 13172   0.000    0.00       0    0.00
 2016 025 13173   0.000    0.00       0    0.00
 2016 026 13174   0.000    0.00       0    0.00
 2016 027 13175   0.000    0.00       0    0.00
 2016 028 13176   0.000    0.00       0    0.00
 2016 029 13177   0.000    0.00       0    0.00
 2016 030 13178   0.000    0.00       0    0.00
 2016 031 13179   0.000    0.00       0    0.00
 2016 032 13180   0.000    0.00       0    0.00
 2016 033 13181   0.000    0.00       0    0.00
 2016 034 13182   0.000    0.00       0    0.00
 2016 035 13183   0.000    0.00       0    0.00
 2016 036 13184   0.000    0.00       0    0.00
 2016 037 13185   0.000    0.00       0    0.00
 2016 038 13186   0.000    0.00       0    0.00
 2016 039 13187   0.000    0.00       0    0.00
 2016 040 13188   0.000    0.00       0    0.00
 2016 041 13189   0.000    0.00       0    0.00
 2016 042 13190   0.000    0.00       0    0.00
 2016 043 13191   0.000    0.00       0    0.00
 2016 044 13192   0.000    0.00       0    0.00
 2016 045 13193   0.000    0.00       0    0.00
 2016 046 13194   0.000    0.00       0    0.00
 2016 047 13195   0.000    0.00       0    0.00
 2016 048 13196   0.000    0.00       0    0.00
 2016 049 13197   0.000    0.00       0    0.00
 2016 050 13198   0.000    0.00       0    0.00
 2016 051 13199   0.000    0.00       0    0.00
 2016 052 13200   0.000    0.00       0    0.00
 2016 053 13201   0.000    0.00       0    0.00
 2016 054 13202   0.000    0.00       0    0.00
 2016 055 13203   0.000    0.00       0    0.00
 2016 056 13204   0.000    0.00       0    0.00
 2016 057 13205   0.000    0.00       0    0.00
 2016 058 13206   0.000    0.00       0    0.00
 2016 059 13207   0.000    0.00       0    0.00
 2016 060 13208   0.000    0.00       0    0.00
 2016 061 13209   0.000    0.00       0    0.00
 2016 062 13210   0.000    0.00       0    0.00
 2016 063 13211   0.000    0.00       0    0.00
 2016 064 13212   0.000    0.00       0    0.00
 2016 065 13213   0.000    0.00       0    0.00
 2016 066 13214   0.000    0.00       0    0.00
 2016 067 13215   0.000    0.00       0    0.00
 2016 068 13216   0.000    0.00       0    0.00
 2016 069 13217   0.000    0.00       0    0.00
 2016 070 13218   0.000    0.00       0    0.00
 2016 071 13219   0.000    0.00       0    0.00
 2016 072 13220   0.000    0.00       0    0.00
 2016 073 13221   0.000    0.00       0    0.00
 2016 074 13222   0.000    0.00       0    0.00
 2016 075 13223   0.000    0.00       0    0.00
 2016 076 13224   0.000    0.00       0    0.00
 2016 077 13225   0.000    0.00       0    0.00
 2016 078 13226   0.000    0.00       0    0.00
 2016 079 13227   0.000    0.00       0    0.00
 2016 080 13228   0.000    0.00       0    0.00
 2016 081 13229   0.000    0.00       0    0.00
 2016 082 13230   0.000    0.00       0    0.00
 2016 083 13231   0.000    0.00       0    0.00
 2016 084 13232   0.000    0.00       0    0.00
 2016 085 13233   0.000    0.00       0    0.00
 2016 086 13234   0.000    0.00       0    0.00
 2016 087 13235   0.000    0.00       0    0.00
 2016 088 13236   0.000    0.00       0    0.00
 2016 089 13237   0.000    0.00       0    0.00
 2016 090 13238   0.000    0.00       0    0.00
 2016 091 13239   0.000    0.00       0    0.00
 2016 092 13240   0.000    0.00       0    0.00
 2016 093 13241   0.000    0.00       0    0.00
 2016 094 13242   0.000    0.00       0    0.00
 2016 095 13243   0.000    0.00       0    0.00
 2016 096 13244   0.000    0.00       0    0.00
 2016 097 13245   0.000    0.00       0    0.00
 2016 098 13246   0.000    0.00       0    0.00
 2016 099 13247   0.000    0.00       0    0.00
 2016 100 13248   0.000    0.00       0    0.00
 2016 101 13249   0.000    0.00       0    0.00
 2016 102 13250   0.000    0.00       0    0.00
 2016 103 13251   0.000    0.00       0    0.00
 2016 104 13252   0.000    0.00       0    0.00
 2016 105 13253   0.000    0.00       0    0.00
 2016 106 13254   0.000    0.00       0    0.00
 2016 107 13255   0.000    0.00       0    0.00
 2016 108 13256   0.000    0.00       0    0.00
 2016 109 13257   0.000    0.00       0    0.00
 2016 110 13258   0.000    0.00       0    0.00
 2016 111 13259   0.000    0.00       0    0.00
 2016 112 13260   0.000    0.00       0    0.00
 2016 113 13261   0.000    0.00       0    0.00
 2016 114 13262   0.000    0.00       0    0.00
 2016 115 13263   0.000    0.00       0    0.00
 2016 116 13264   0.000    0.00       0    0.00
 2016 117 13265   0.000    0.00       0    0.00
 2016 118 13266   0.000    0.00       0    0.00
 2016 119 13267   0.000    0.00       0    0.00
 2016 120 13268   0.000    0.00       0    0.00
 2016 121 13269   0.000    0.00       0    0.00
 2016 122 13270   0.000    0.00       0    0.00
 2016 123 13271   0.000    0.00       0    0.00
 2016 124 13272   0.000    0.00       0    0.00
 2016 125 13273   0.000    0.00       0    0.00
 2016 126 13274   0.000    0.00       0    0.00
 2016 127 13275   0.000    0.00       0    0.00
 2016 128 13276   0.000    0.00       0    0.00
 2016 129 13277   0.000    0.00       0    0.00
 2016 130 13278   0.000    0.00       0    0.00
 2016 131 13279   0.000    0.00       0    0.00
 2016 132 13280   0.000    0.00       0    0.00
 2016 133 13281   0.000    0.00       0    0.00
 2016 134 13282   0.000    0.00       0    0.00
 2016 135 13283   0.000    0.00       0    0.00
 2016 136 13284   0.000    0.00       0    0.00
 2016 137 13285   0.000    0.00       0    0.00
 2016 138 13286   0.000    0.00       0    0.00
 2016 139 13287   0.000    0.00       0    0.00
 2016 140 13288   0.000    0.00       0    0.00
 2016 141 13289   0.000    0.00       0    0.00
 2016 142 13290   0.000    0.00       0    0.00
 2016 143 13291   0.000    0.00       0    0.00
 2016 144 13292   0.000    0.00       0    0.00
 2016 145 13293   0.000    0.00       0    0.00
 2016 146 13294   0.000    0.00       0    0.00
 2016 147 13295   0.000    0.00       0    0.00
 2016 148 13296   0.000    0.00       0    0.00
 2016 149 13297   0.000    0.00       0    0.00
 2016 150 13298   0.000    0.00       0    0.00
 2016 151 13299   0.000    0.00       0    0.00
 2016 152 13300   0.000    0.00       0    0.00
 2016 153 13301   0.000    0.00       0    0.00
 2016 154 13302   0.000    0.00       0    0.00
 2016 155 13303   0.000    0.00       0    0.00
 2016 156 13304   0.000    0.00       0    0.00
 2016 157 13305   0.000    0.00       0    0.00
 2016 158 13306   0.000    0.00       0    0.00
 2016 159 13307   0.000    0.00       0    0.00
 2016 160 13308   0.000    0.00       0    0.00
 2016 161 13309   0.000    0.00       0    0.00
 2016 162 13310   0.000    0.00       0    0.00
 2016 163 13311   0.000    0.00       0    0.00
 2016 164 13312   0.000    0.00       0    0.00
 2016 165 13313   0.000    0.00       0    0.00
 2016 166 13314   0.000    0.00       0    0.00
 2016 167 13315   0.000    0.00       0    0.00
 2016 168 13316   0.000    0.00       0    0.00
 2016 169 13317   0.000    0.00       0    0.00
 2016 170 13318   0.000    0.00       0    0.00
 2016 171 13319   0.000    0.00       0    0.00
 2016 172 13320   0.000    0.00       0    0.00
 2016 173 13321   0.000    0.00       0    0.00
 2016 174 13322   0.000    0.00       0    0.00
 2016 175 13323   0.000    0.00       0    0.00
 2016 176 13324   0.000    0.00       0    0.00
 2016 177 13325   0.000    0.00       0    0.00
 2016 178 13326   0.000    0.00       0    0.00
 2016 179 13327   0.000    0.00       0    0.00
 2016 180 13328   0.000    0.00       0    0.00
 2016 181 13329   0.000    0.00       0    0.00
 2016 182 13330   0.000    0.00       0    0.00
 2016 183 13331   0.000    0.00       0    0.00
 2016 184 13332   0.000    0.00       0    0.00
 2016 185 13333   0.000    0.00       0    0.00
 2016 186 13334   0.000    0.00       0    0.00
 2016 187 13335   0.000    0.00       0    0.00
 2016 188 13336   0.000    0.00       0    0.00
 2016 189 13337   0.000    0.00       0    0.00
 2016 190 13338   0.000    0.00       0    0.00
 2016 191 13339   0.000    0.00       0    0.00
 2016 192 13340   0.000    0.00       0    0.00
 2016 193 13341   0.000    0.00       0    0.00
 2016 194 13342   0.000    0.00       0    0.00
 2016 195 13343   0.000    0.00       0    0.00
 2016 196 13344   0.000    0.00       0    0.00
 2016 197 13345   0.000    0.00       0    0.00
 2016 198 13346   0.000    0.00       0    0.00
 2016 199 13347   0.000    0.00       0    0.00
 2016 200 13348   0.000    0.00       0    0.00
 2016 201 13349   0.000    0.00       0    0.00
 2016 202 13350   0.000    0.00       0    0.00
 2016 203 13351   0.000    0.00       0    0.00
 2016 204 13352   0.000    0.00       0    0.00
 2016 205 13353   0.000    0.00       0    0.00
 2016 206 13354   0.000    0.00       0    0.00
 2016 207 13355   0.000    0.00       0    0.00
 2016 208 13356   0.000    0.00       0    0.00
 2016 209 13357   0.000    0.00       0    0.00
 2016 210 13358   0.000    0.00       0    0.00
 2016 211 13359   0.000    0.00       0    0.00
 2016 212 13360   0.000    0.00       0    0.00
 2016 213 13361   0.000    0.00       0    0.00
 2016 214 13362   0.000    0.00       0    0.00
 2016 215 13363   0.000    0.00       0    0.00
 2016 216 13364   0.000    0.00       0    0.00
 2016 217 13365   0.000    0.00       0    0.00
 2016 218 13366   0.000    0.00       0    0.00
 2016 219 13367   0.000    0.00       0    0.00
 2016 220 13368   0.000    0.00       0    0.00
 2016 221 13369   0.000    0.00       0    0.00
 2016 222 13370   0.000    0.00       0    0.00
 2016 223 13371   0.000    0.00       0    0.00
 2016 224 13372   0.000    0.00       0    0.00
 2016 225 13373   0.000    0.00       0    0.00
 2016 226 13374   0.000    0.00       0    0.00
 2016 227 13375   0.000    0.00       0    0.00
 2016 228 13376   0.000    0.00       0    0.00
 2016 229 13377   0.000    0.00       0    0.00
 2016 230 13378   0.000    0.00       0    0.00
 2016 231 13379   0.000    0.00       0    0.00
 2016 232 13380   0.000    0.00       0    0.00
 2016 233 13381   0.000    0.00       0    0.00
 2016 234 13382   0.000    0.00       0    0.00
 2016 235 13383   0.000    0.00       0    0.00
 2016 236 13384   0.000    0.00       0    0.00
 2016 237 13385   0.000    0.00       0    0.00
 2016 238 13386   0.000    0.00       0    0.00
 2016 239 13387   0.000    0.00       0    0.00
 2016 240 13388   0.000    0.00       0    0.00
 2016 241 13389   0.000    0.00       0    0.00
 2016 242 13390   0.000    0.00       0    0.00
 2016 243 13391   0.000    0.00       0    0.00
 2016 244 13392   0.000    0.00       0    0.00
 2016 245 13393   0.000    0.00       0    0.00
 2016 246 13394   0.000    0.00       0    0.00
 2016 247 13395   0.000    0.00       0    0.00
 2016 248 13396   0.000    0.00       0    0.00
 2016 249 13397   0.000    0.00       0    0.00
 2016 250 13398   0.000    0.00       0    0.00
 2016 251 13399   0.000    0.00       0    0.00
 2016 252 13400   0.000    0.00       0    0.00
 2016 253 13401   0.000    0.00       0    0.00
 2016 254 13402   0.000    0.00       0    0.00
 2016 255 13403   0.000    0.00       0    0.00
 2016 256 13404   0.000    0.00       0    0.00
 2016 257 13405   0.000    0.00       0    0.00
 2016 258 13406   0.000    0.00       0    0.00
 2016 259 13407   0.000    0.00       0    0.00
 2016 260 13408   0.000    0.00       0    0.00
 2016 261 13409   0.000    0.00       0    0.00
 2016 262 13410   0.000    0.00       0    0.00
 2016 263 13411   0.000    0.00       0    0.00
 2016 264 13412   0.000    0.00       0    0.00
 2016 265 13413   0.000    0.00       0    0.00
 2016 266 13414   0.000    0.00       0    0.00
 2016 267 13415   0.000    0.00       0    0.00
 2016 268 13416   0.000    0.00       0    0.00
 2016 269 13417   0.000    0.00       0    0.00
 2016 270 13418   0.000    0.00       0    0.00
 2016 271 13419   0.000    0.00       0    0.00
 2016 272 13420   0.000    0.00       0    0.00
 2016 273 13421   0.000    0.00       0    0.00
 2016 274 13422   0.000    0.00       0    0.00
 2016 275 13423   0.000    0.00       0    0.00
 2016 276 13424   0.000    0.00       0    0.00
 2016 277 13425   0.000    0.00       0    0.00
 2016 278 13426   0.000    0.00       0    0.00
 2016 279 13427   0.000    0.00       0    0.00
 2016 280 13428   0.000    0.00       0    0.00
 2016 281 13429   0.000    0.00       0    0.00
 2016 282 13430   0.000    0.00       0    0.00
 2016 283 13431   0.000    0.00       0    0.00
 2016 284 13432   0.000    0.00       0    0.00
 2016 285 13433   0.000    0.00       0    0.00
 2016 286 13434   0.000    0.00       0    0.00
 2016 287 13435   0.000    0.00       0    0.00
 2016 288 13436   0.000    0.00       0    0.00
 2016 289 13437   0.000    0.00       0    0.00
 2016 290 13438   0.000    0.00       0    0.00
 2016 291 13439   0.000    0.00       0    0.00
 2016 292 13440   0.000    0.00       0    0.00
 2016 293 13441   0.000    0.00       0    0.00
 2016 294 13442   0.000    0.00       0    0.00
 2016 295 13443   0.000    0.00       0    0.00
 2016 296 13444   0.000    0.00       0    0.00
 2016 297 13445   0.000    0.00       0    0.00
 2016 298 13446   0.000    0.00       0    0.00
 2016 299 13447   0.000    0.00       0    0.00
 2016 300 13448   0.000    0.00       0    0.00
 2016 301 13449   0.000    0.00       0    0.00
 2016 302 13450   0.000    0.00       0    0.00
 2016 303 13451   0.000    0.00       0    0.00
 2016 304 13452   0.000    0.00       0    0.00
 2016 305 13453   0.000    0.00       0    0.00
 2016 306 13454   0.000    0.00       0    0.00
 2016 307 13455   0.000    0.00       0    0.00
 2016 308 13456   0.000    0.00       0    0.00
 2016 309 13457   0.000    0.00       0    0.00
 2016 310 13458   0.000    0.00       0    0.00
 2016 311 13459   0.000    0.00       0    0.00
 2016 312 13460   0.000    0.00       0    0.00
 2016 313 13461   0.000    0.00       0    0.00
 2016 314 13462   0.000    0.00       0    0.00
 2016 315 13463   0.000    0.00       0    0.00
 2016 316 13464   0.000    0.00       0    0.00
 2016 317 13465   0.000    0.00       0    0.00
 2016 318 13466   0.000    0.00       0    0.00
 2016 319 13467   0.000    0.00       0    0.00
 2016 320 13468   0.000    0.00       0    0.00
 2016 321 13469   0.000    0.00       0    0.00
 2016 322 13470   0.000    0.00       0    0.00
 2016 323 13471   0.000    0.00       0    0.00
 2016 324 13472   0.000    0.00       0    0.00
 2016 325 13473   0.000    0.00       0    0.00
 2016 326 13474   0.000    0.00       0    0.00
 2016 327 13475   0.000    0.00       0    0.00
 2016 328 13476   0.000    0.00       0    0.00
 2016 329 13477   0.000    0.00       0    0.00
 2016 330 13478   0.000    0.00       0    0.00
 2016 331 13479   0.000    0.00       0    0.00
 2016 332 13480   0.000    0.00       0    0.00
 2016 333 13481   0.000    0.00       0    0.00
 2016 334 13482   0.000    0.00       0    0.00
 2016 335 13483   0.000    0.00       0    0.00
 2016 336 13484   0.000    0.00       0    0.00
 2016 337 13485   0.000    0.00       0    0.00
 2016 338 13486   0.000    0.00       0    0.00
 2016 339 13487   0.000    0.00       0    0.00
 2016 340 13488   0.000    0.00       0    0.00
 2016 341 13489   0.000    0.00       0    0.00
 2016 342 13490   0.000    0.00       0    0.00
 2016 343 13491   0.000    0.00       0    0.00
 2016 344 13492   0.000    0.00       0    0.00
 2016 345 13493   0.000    0.00       0    0.00
 2016 346 13494   0.000    0.00       0    0.00
 2016 347 13495   0.000    0.00       0    0.00
 2016 348 13496   0.000    0.00       0    0.00
 2016 349 13497   0.000    0.00       0    0.00
 2016 350 13498   0.000    0.00       0    0.00
 2016 351 13499   0.000    0.00       0    0.00
 2016 352 13500   0.000    0.00       0    0.00
 2016 353 13501   0.000    0.00       0    0.00
 2016 354 13502   0.000    0.00       0    0.00
 2016 355 13503   0.000    0.00       0    0.00
 2016 356 13504   0.000    0.00       0    0.00
 2016 357 13505   0.000    0.00       0    0.00
 2016 358 13506   0.000    0.00       0    0.00
 2016 359 13507   0.000    0.00       0    0.00
 2016 360 13508   0.000    0.00       0    0.00
 2016 361 13509   0.000    0.00       0    0.00
 2016 362 13510   0.000    0.00       0    0.00
 2016 363 13511   0.000    0.00       0    0.00
 2016 364 13512   0.000    0.00       0    0.00
 2016 365 13513   0.000    0.00       0    0.00
