#########################################################################################################################################
# os resultados diários da simulação de carbono das plantas no modelo DSSAT. Cada linha de dados corresponde a um dia específico e 
# inclui informações sobre o ano da simulação, dia do ano, dias após a semeadura, dias após o plantio, biomassa total acima do solo, 
# fotossíntese acumulada diária, carbono na biomassa total, crescimento do carbono, respiração da planta, respiração da manutenção, 
# carboidratos armazenados, carbono no solo, percentual de carbono na folha, percentual de carbono no caule, percentual de carbono na 
# cultura, percentual de carbono nas raízes, temperatura mínima do solo, temperatura média do solo, percentual de nitrogênio na folha, 
# percentual de nitrogênio no caule e percentual de nitrogênio na cultura. Esses dados são essenciais para entender a dinâmica do carbono 
# nas plantas ao longo do tempo e seu impacto nas condições de crescimento das plantas.
########################################################################################################################################


*PLANT C OUTPUT FILE

*DSSAT Cropping System Model Ver. 4.8.0.027 -release  FEB 01, 2024 15:59:10

*RUN   1        : MARANDU11299              PRFRM048 SPPI7902    1
 MODEL          : PRFRM048 - Brachiaria
 EXPERIMENT     : SPPI7902 BR
 DATA PATH      : C:/DSSAT48/Brachiaria/
 TREATMENT  1   : MARANDU11299              PRFRM048
  
@YEAR DOY   DAS   DAP  TWAD   PHAD   CMAD   CGRD   GRAD   MRAD   CHAD  QHAD  CL%D  CS%D  QC%D  CR%D  TGNN  TGAV  GN%D  GL%D  GC%D
 1980 288   287     0  1989   0.00   0.28   0.19   0.06   0.00   0.00  0.00   3.9   7.8  19.7   7.9  24.9  20.7  0.00  0.00  0.00
 1980 289   288     1  2113  20.43   0.27  15.81   3.18   1.47   0.00  0.00   3.9   7.7  19.6   7.8  24.9  20.6  0.00  0.00  0.00
 1980 290   289     2  2276  29.40   0.34  20.62   2.35   2.01   0.00  0.00   3.8   7.6  19.5   7.7  26.5  22.1  0.00  0.00  0.00
 1980 291   290     3  2455  31.83   0.44  23.30   5.34   2.58   0.00  0.00   3.8   7.5  19.4   7.6  29.7  24.6  0.00  0.00  0.00
 1980 292   291     4  2565  20.94   0.42  16.00   3.12   1.95   0.00  0.00   3.7   7.4  19.3   7.4  26.1  22.9  0.00  0.00  0.00
 1980 293   292     5  2696  24.86   0.38  17.67   1.53   1.94   0.02  0.00   3.7   7.3  19.2   7.4  24.3  21.5  0.00  0.00  0.00
 1980 294   293     6  2810  21.13   0.37  15.83   3.34   1.80   0.05  0.00   3.7   7.3  19.2   7.3  22.8  21.0  0.00  0.00  0.00
 1980 295   294     7  2948  25.96   0.41  18.59   3.06   2.12   0.08  0.00   3.7   7.2  19.1   7.3  23.6  21.8  0.00  0.00  0.00
 1980 296   295     8  3086  24.38   0.28  16.93   3.19   1.59   0.20  0.00   3.7   7.3  19.1   7.3  21.3  18.1  0.00  0.00  0.00
 1980 297   296     9  3213  21.69   0.20  14.96   3.55   1.28   0.14  0.00   3.8   7.3  19.2   7.4  19.1  15.8  0.00  0.00  0.00
 1980 298   297    10  3300  15.01   0.15  10.51   2.77   1.00   0.09  0.00   3.8   7.3  19.2   7.4  18.0  14.2  0.00  0.00  0.00
 1980 299   298    11  3485  32.70   0.42  23.24   5.95   2.35   0.00  0.00   3.8   7.3  19.2   7.3  24.6  20.4  0.00  0.00  0.00
 1980 300   299    12  3662  33.78   0.64  25.01   5.29   3.36   0.01  0.00   3.7   7.2  19.1   7.2  28.7  25.0  0.00  0.00  0.00
 1980 301   300    13  3782  24.69   0.56  18.31   3.64   2.65   0.18  0.00   3.7   7.2  19.1   7.3  24.5  22.9  0.00  0.00  0.00
 1980 302   301    14  3986  39.72   0.63  27.24   2.16   3.56   0.19  0.00   3.7   7.2  19.0   7.2  27.8  24.0  0.00  0.00  0.00
 1980 303   302    15  4185  37.19   0.60  26.53   6.30   3.28   0.25  0.00   3.7   7.2  19.0   7.3  26.2  22.8  0.00  0.00  0.00
 1980 304   303    16  4373  34.12   0.43  23.31   5.14   2.46   0.30  0.00   3.7   7.3  19.0   7.3  21.8  19.1  0.00  0.00  0.00
 1980 305   304    17  4524  26.45   0.30  18.17   4.96   1.80   0.24  0.00   3.8   7.3  19.0   7.3  19.5  16.3  0.00  0.00  0.00
 1980 306   305    18  4659  24.34   0.35  17.22   4.32   1.93   0.10  0.00   3.8   7.3  19.0   7.3  21.8  16.8  0.00  0.00  0.00
 1980 307   306    19  4853  35.80   0.55  25.23   6.22   2.96   0.04  0.00   3.7   7.3  19.0   7.3  25.3  20.1  0.00  0.00  0.00
 1980 308   307    20  5083  44.02   0.77  31.25   7.53   4.17   0.09  0.00   3.7   7.2  19.0   7.3  29.0  23.4  0.00  0.00  0.00
 1980 309   308    21  5323  46.44   0.83  32.68   7.47   4.42   0.24  0.00   3.7   7.2  18.9   7.2  27.6  23.8  0.00  0.00  0.00
 1980 310   309    22  5500  36.50   0.89  26.90   5.37   4.22   0.29  0.00   3.7   7.2  18.9   7.2  27.6  24.1  0.00  0.00  0.00
 1980 311   310    23  5628  27.19   0.67  19.46   4.14   3.01   0.45  0.00   3.7   7.2  18.8   7.3  21.8  20.5  0.00  0.00  0.00
 1980 312   311    24  5836  40.93   0.78  28.28   7.20   3.89   0.26  0.00   3.7   7.2  18.8   7.3  25.2  21.8  0.00  0.00  0.00
 1980 313   312    25  6032  37.74   0.70  26.51   6.47   3.47   0.35  0.00   3.7   7.2  18.8   7.3  23.6  20.3  0.00  0.00  0.00
 1980 314   313    26  6217  35.04   0.62  24.42   6.16   3.07   0.32  0.00   3.7   7.3  18.8   7.3  20.8  18.9  0.00  0.00  0.00
 1980 315   314    27  6382  30.82   0.49  21.26   5.53   2.58   0.31  0.00   3.8   7.3  18.8   7.3  19.9  17.1  0.00  0.00  0.00
 1980 316   315    28  6581  36.59   0.57  25.41   6.66   3.00   0.17  0.00   3.7   7.3  18.8   7.3  21.4  17.9  0.00  0.00  0.00
 1980 317   316    29  6780  37.50   0.64  26.31   6.64   3.25   0.19  0.00   3.7   7.3  18.7   7.3  22.5  18.4  0.00  0.00  0.00
 1980 318   317    30  6988  39.56   0.72  27.80   6.91   3.58   0.21  0.00   3.7   7.3  18.7   7.3  23.4  19.1  0.00  0.00  0.00
 1980 319   318    31  7230  48.96   1.09  35.16   7.95   5.30   0.13  0.00   3.7   7.2  18.7   7.3  28.5  23.1  0.00  0.00  0.00
 1980 320   319    32  7481  52.92   1.28  37.67   8.38   6.20   0.33  0.00   3.7   7.2  18.6   7.2  29.4  24.8  0.00  0.00  0.00
 1980 321   320    33  7695  47.33   1.33  34.32   6.89   6.07   0.48  0.00   3.6   7.1  18.5   7.2  28.4  24.8  0.00  0.00  0.00
 1980 322   321    34  7901  40.82   0.78  27.31   7.21   3.86   0.77  0.00   3.7   7.2  18.5   7.3  22.9  18.9  0.00  0.00  0.00
 1980 323   322    35  8115  44.69   1.17  32.66   6.78   5.26   0.25  0.00   3.7   7.2  18.4   7.3  26.2  22.4  0.00  0.00  0.00
 1980 324   323    36  8329  46.55   1.24  33.10   7.23   5.60   0.43  0.00   3.7   7.2  18.4   7.2  26.0  22.9  0.00  0.00  0.00
 1980 325   324    37  8498  40.30   1.37  29.92   5.29   5.79   0.48  0.00   3.7   7.2  18.3   7.2  27.2  23.8  0.00  0.00  0.00
 1980 326   325    38  8656  37.39   1.20  26.57   5.36   5.08   0.65  0.00   3.7   7.2  18.2   7.2  24.5  22.0  0.00  0.00  0.00
 1980 327   326    39  8774  32.98   1.47  25.71   3.37   5.81   0.44  0.00   3.7   7.2  18.2   7.2  26.0  24.2  0.00  0.00  0.00
 1980 328   327    40  8989  47.32   1.16  30.46   8.46   5.31   0.79  0.00   3.7   7.2  18.1   7.3  23.7  21.4  0.00  0.00  0.00
 1980 329   328    41  9191  41.53   0.99  29.07   6.62   4.64   0.66  0.00   3.7   7.2  18.1   7.3  24.6  19.6  0.00  0.00  0.00
 1980 330   329    42  9411  45.00   1.04  31.21   7.52   4.83   0.44  0.00   3.7   7.2  18.1   7.3  23.6  19.8  0.00  0.00  0.00
 1980 331   330    43  9607  40.25   0.93  28.00   6.59   4.41   0.50  0.00   3.7   7.3  18.0   7.3  23.4  18.7  0.00  0.00  0.00
 1980 332   331    44  9846  52.39   1.51  37.79   7.94   6.69   0.21  0.00   3.7   7.2  18.0   7.2  27.6  23.2  0.00  0.00  0.00
 1980 333   332    45  9958  31.90   1.41  25.02   3.13   5.54   0.57  0.00   3.7   7.2  17.9   7.2  24.0  22.2  0.00  0.00  0.00
 1980 334   333    46 10176  44.32   1.51  35.43   4.71   6.34   0.74  0.00   3.7   7.2  17.9   7.2  25.1  22.9  0.00  0.00  0.00
 1980 335   334    47 10415  49.76   1.77  39.54   5.47   7.49   0.63  0.00   3.7   7.2  17.8   7.2  27.4  24.6  0.00  0.00  0.00
 1980 336   335    48 10627  45.47   1.72  36.44   4.60   7.13   0.78  0.00   3.6   7.1  17.7   7.2  26.9  24.0  0.00  0.00  0.00
 1980 337   336    49 10741  37.47   1.75  26.90   4.38   6.89   0.78  0.00   3.6   7.1  17.6   7.2  26.1  24.0  0.00  0.00  0.00
 1980 338   337    50 10866  37.14   1.58  26.43   4.49   6.33   1.02  0.00   3.6   7.1  17.6   7.2  24.4  22.6  0.00  0.00  0.00
 1980 339   338    51 11121  48.49   1.59  38.87   5.00   6.77   0.96  0.00   3.7   7.2  17.5   7.3  24.6  22.6  0.00  0.00  0.00
 1980 340   339    52 11368  49.27   1.61  37.79   6.04   6.83   0.84  0.00   3.7   7.2  17.4   7.3  25.2  22.3  0.00  0.00  0.00
 1980 341   340    53 11632  51.80   1.84  41.09   5.58   7.78   0.76  0.00   3.7   7.2  17.4   7.2  27.9  23.7  0.00  0.00  0.00
 1980 342   341    54 11880  51.31   1.90  39.75   5.74   7.97   0.87  0.00   3.7   7.2  17.3   7.2  28.1  23.8  0.00  0.00  0.00
 1980 343   342    55 12142  54.47   2.15  42.78   5.49   9.16   0.91  0.00   3.6   7.1  17.2   7.2  30.2  25.5  0.00  0.00  0.00
 1980 344   343    56 12385  55.76   2.38  42.48   5.70  10.46   1.00  0.00   3.6   7.1  17.1   7.2  32.1  27.3  0.00  0.00  0.00
 1980 345   344    57 12601  54.22   2.47  40.33   5.72  10.75   1.16  0.00   3.6   7.1  17.0   7.2  32.2  27.7  0.00  0.00  0.00
 1980 346   345    58 12721  42.84   2.40  30.98   4.09   9.63   1.23  0.00   3.6   7.1  16.9   7.2  30.8  26.6  0.00  0.00  0.00
 1980 347   346    59 12903  49.12   2.06  33.00   6.65   8.46   1.62  0.00   3.6   7.1  16.8   7.2  26.9  24.0  0.00  0.00  0.00
 1980 348   347    60 13115  49.45   2.17  37.24   5.40   8.80   1.15  0.00   3.6   7.1  16.8   7.2  27.8  24.4  0.00  0.00  0.00
 1980 349   348    61 13334  48.03   2.06  36.82   4.75   8.39   1.25  0.00   3.6   7.1  16.7   7.2  27.3  23.5  0.00  0.00  0.00
 1980 350   349    62 13515  48.11   2.21  34.21   5.91   8.88   1.14  0.00   3.6   7.1  16.6   7.2  28.1  24.2  0.00  0.00  0.00
 1980 351   350    63 13724  47.22   2.10  35.69   4.74   8.46   1.31  0.00   3.6   7.1  16.6   7.2  27.1  23.4  0.00  0.00  0.00
 1980 352   351    64 13836  36.23   2.04  26.66   3.40   7.82   1.14  0.00   3.6   7.1  16.5   7.2  26.2  22.8  0.00  0.00  0.00
 1980 353   352    65 13902  33.17   2.04  21.65   3.74   7.67   1.26  0.00   3.6   7.1  16.4   7.2  24.5  22.8  0.00  0.00  0.00
 1980 354   353    66 14060  36.94   1.65  27.24   3.52   6.69   1.53  0.23   3.7   7.2  16.4   7.3  23.1  20.5  0.00  0.00  0.00
 1980 355   354    67 14234  38.29   1.61  28.48   3.72   6.57   1.15  0.18   3.7   7.2  16.4   7.3  22.9  20.1  0.00  0.00  0.00
 1980 356   355    68 14401  37.08   1.53  26.73   3.51   6.32   1.09  0.19   3.7   7.2  16.5   7.3  22.7  19.5  0.00  0.00  0.00
 1980 357   356    69 14572  37.77   1.67  28.24   3.89   6.76   0.93  0.13   3.7   7.2  16.4   7.3  23.6  20.2  0.00  0.00  0.00
 1980 358   357    70 14737  40.38   2.02  30.30   3.94   7.87   0.87  0.08   3.7   7.2  16.4   7.3  25.5  21.9  0.00  0.00  0.00
 1980 359   358    71 14898  41.56   2.18  30.40   4.14   8.47   1.18  0.16   3.6   7.1  16.4   7.2  26.6  22.7  0.00  0.00  0.00
 1980 360   359    72 15058  42.99   2.40  31.47   4.07   9.24   1.24  0.17   3.6   7.1  16.4   7.2  27.5  23.8  0.00  0.00  0.00
 1980 361   360    73 15169  40.58   2.52  27.59   4.35   9.53   1.35  0.23   3.6   7.1  16.3   7.2  27.9  24.3  0.00  0.00  0.00
 1980 362   361    74 15194  29.71   2.37  18.83   2.79   8.61   1.21  0.24   3.6   7.1  16.3   7.2  26.2  23.5  0.00  0.00  0.00
 1980 363   362    75 15250  35.03   2.47  21.47   3.68   9.20   1.81  0.31   3.6   7.1  16.3   7.2  27.0  24.1  0.00  0.00  0.00
 1980 364   363    76 15321  41.01   2.81  24.94   5.05  10.51   1.59  0.22   3.6   7.1  16.3   7.2  28.6  25.7  0.00  0.00  0.00
 1980 365   364    77 15432  42.54   2.77  28.28   4.27  10.50   1.80  0.33   3.6   7.1  16.3   7.2  28.5  25.5  0.00  0.00  0.00
 1980 366   365    78 15533  41.50   2.82  27.85   4.02  10.61   1.68  0.30   3.6   7.1  16.3   7.2  29.1  25.7  0.00  0.00  0.00
 1981 001   366    79 15614  41.69   3.03  27.46   3.79  11.80   1.67  0.26   3.6   7.1  16.3   7.1  31.5  27.3  0.00  0.00  0.00
 1981 002   367    80 15685  37.77   2.72  23.96   3.68  10.16   1.87  0.41   3.6   7.1  16.3   7.2  28.5  25.1  0.00  0.00  0.00
 1981 003   368    81 15717  32.53   2.73  21.00   2.68   9.87   1.52  0.30   3.6   7.0  16.3   7.1  27.3  25.0  0.00  0.00  0.00
 1981 004   369    82 15817  37.72   2.49  24.48   3.65   9.49   1.95  0.39   3.6   7.1  16.3   7.2  28.1  23.8  0.00  0.00  0.00
 1981 005   370    83 15911  40.52   2.88  26.62   3.63  11.24   1.82  0.27   3.6   7.1  16.3   7.2  31.2  26.2  0.00  0.00  0.00
 1981 006   371    84 15861  24.09   2.80  14.80   1.85   9.76   0.61  0.13   3.5   6.9  16.2   7.1  28.3  25.1  0.00  0.00  0.00
 1981 007   372    85  8541  35.93   2.47  19.41   4.62   9.40   1.82  0.38   3.5   7.0  16.2   7.1  26.9  23.8  0.00  0.00  0.00
 1981 008   373    86  8519  11.55   2.16   4.96   0.63   8.33   0.00  0.00   3.4   6.8  15.9   6.9  28.1  23.4  0.00  0.00  0.00
 1981 009   374    87  8524  13.20   2.17   7.29   2.13   4.92   0.01  0.02   3.4   6.6  15.6   6.8  28.7  24.0  0.00  0.00  0.00
 1981 010   375    88  8556  16.02   2.13  10.49   2.01   5.15   0.04  0.05   3.3   6.5  15.3   6.6  28.4  24.4  0.00  0.00  0.00
 1981 011   376    89  8601  18.92   2.24  12.67   2.40   5.84   0.07  0.10   3.3   6.3  15.0   6.5  29.6  26.0  0.00  0.00  0.00
 1981 012   377    90  8656  20.95   2.18  13.79   2.10   6.13   0.10  0.16   3.3   6.2  14.8   6.4  29.4  26.6  0.00  0.00  0.00
 1981 013   378    91  8730  22.07   1.88  14.70   2.90   5.72   0.13  0.22   3.3   6.1  14.6   6.3  28.4  25.2  0.00  0.00  0.00
 1981 014   379    92  8818  23.42   0.00  13.28   1.78   5.63   0.70  0.63   3.4   6.3  14.8   6.4  28.5  24.6  0.00  0.00  0.00
 1981 015   380    93  8899  21.35   1.27  13.87   2.11   4.83   0.13  0.23   3.4   6.3  14.8   6.4  25.8  22.5  0.00  0.00  0.00
 1981 016   381    94  8989  23.35   1.71  15.94   2.70   5.68   0.17  0.30   3.3   6.2  14.7   6.3  28.4  24.5  0.00  0.00  0.00
 1981 017   382    95  9045  23.78   1.92  13.74   3.57   6.54   0.19  0.31   3.3   6.0  14.6   6.2  29.7  26.7  0.00  0.00  0.00
 1981 018   383    96  9146  27.52   0.00  14.90   1.99   6.80   1.12  0.99   3.5   6.5  14.9   6.4  30.0  26.8  0.00  0.00  0.00
 1981 019   384    97  9227  23.47   1.73  15.65   2.74   5.98   0.17  0.33   3.4   6.4  14.8   6.3  28.1  25.0  0.00  0.00  0.00
 1981 020   385    98  9321  26.64   0.85  16.05   2.43   6.46   0.27  0.48   3.5   6.4  14.9   6.4  28.8  25.8  0.00  0.00  0.00
 1981 021   386    99  9422  23.59   0.00  14.13   2.17   4.82   0.33  0.44   3.5   6.5  15.1   6.5  24.3  21.6  0.00  0.00  0.00
 1981 022   387   100  9515  22.15   1.25  14.72   2.57   4.72   0.17  0.31   3.5   6.4  15.1   6.5  25.5  21.2  0.00  0.00  0.00
 1981 023   388   101  9619  25.92   0.00  14.08   2.03   5.84   1.18  0.98   3.6   6.9  15.4   6.6  28.3  23.7  0.00  0.00  0.00
 1981 024   389   102  9715  28.47   1.95  17.59   3.80   7.20   0.26  0.60   3.6   6.8  15.5   6.6  31.0  26.7  0.00  0.00  0.00
 1981 025   390   103  9788  24.53   1.93  15.91   2.79   6.88   0.22  0.38   3.5   6.6  15.5   6.5  29.6  26.3  0.00  0.00  0.00
 1981 026   391   104  9868  26.04   0.30  14.90   2.11   7.00   0.31  0.44   3.6   6.7  15.6   6.7  29.0  26.4  0.00  0.00  0.00
 1981 027   392   105  9971  30.51   0.04  16.85   2.39   8.09   0.48  0.66   3.6   6.9  15.8   6.9  31.9  28.2  0.00  0.00  0.00
 1981 028   393   106 10021  24.65   2.22  14.87   2.11   8.17   0.26  0.36   3.5   6.7  15.8   6.8  32.2  28.9  0.00  0.00  0.00
 1981 029   394   107 10088  23.46   1.92  15.31   2.47   6.86   0.27  0.31   3.5   6.6  15.7   6.7  29.0  26.0  0.00  0.00  0.00
 1981 030   395   108 10186  24.76   0.00  13.11   1.93   5.63   1.37  0.92   3.7   7.1  16.0   6.8  25.8  22.7  0.00  0.00  0.00
 1981 031   396   109 10275  24.25   1.65  15.87   2.85   5.95   0.21  0.34   3.6   7.0  16.0   6.8  27.4  23.4  0.00  0.00  0.00
 1981 032   397   110 10341  25.57   0.00  13.26   1.75   7.96   0.57  0.45   3.7   7.2  16.2   7.0  31.7  27.9  0.00  0.00  0.00
 1981 033   398   111 10417  26.49   2.21  16.86   2.68   7.85   0.26  0.33   3.6   7.0  16.1   7.0  30.8  27.5  0.00  0.00  0.00
 1981 034   399   112 10487  25.79   1.03  14.67   2.15   7.44   0.39  0.31   3.6   7.1  16.2   7.1  30.1  26.5  0.00  0.00  0.00
 1981 035   400   113  9454  21.13   0.00  10.83   1.46   5.40   1.25  0.73   3.8   7.5  16.4   7.1  24.1  22.1  0.00  0.00  0.00
 1981 036   401   114  9472  11.59   1.89   7.58   1.27   4.59   0.00  0.00   3.7   7.3  16.1   7.0  24.0  20.6  0.00  0.00  0.00
 1981 037   402   115  9489  12.48   1.97   7.91   1.21   4.63   0.00  0.01   3.7   7.2  15.8   6.9  25.7  21.9  0.00  0.00  0.00
 1981 038   403   116  9509  16.03   2.68  10.25   1.65   6.06   0.01  0.03   3.6   7.0  15.5   6.8  29.7  25.5  0.00  0.00  0.00
 1981 039   404   117  9517  15.81   2.83   9.83   1.56   6.76   0.01  0.03   3.5   6.7  15.0   6.6  31.3  27.3  0.00  0.00  0.00
 1981 040   405   118  9513  13.62   2.37   7.24   2.22   5.68   0.01  0.02   3.4   6.5  14.7   6.5  27.2  24.8  0.00  0.00  0.00
 1981 041   406   119  9518  12.15   2.00   7.49   1.24   5.05   0.00  0.01   3.4   6.4  14.4   6.3  25.1  23.2  0.00  0.00  0.00
 1981 042   407   120  9553  19.03   0.00   9.83   1.30   6.97   0.10  0.13   3.4   6.4  14.5   6.4  31.0  27.5  0.00  0.00  0.00
 1981 043   408   121  9577  18.61   2.61  11.60   1.81   7.29   0.03  0.08   3.3   6.2  14.1   6.2  31.8  28.3  0.00  0.00  0.00
 1981 044   409   122  9603  16.72   2.20  10.60   1.80   6.11   0.03  0.06   3.3   6.1  13.8   6.1  28.4  25.5  0.00  0.00  0.00
 1981 045   410   123  9618  11.06   0.78   6.28   0.84   4.22   0.00  0.00   3.2   6.0  13.8   6.1  23.1  20.7  0.00  0.00  0.00
 1981 046   411   124  9645  17.19   2.15  10.88   1.91   6.40   0.03  0.07   3.2   5.8  13.5   6.0  29.7  26.1  0.00  0.00  0.00
 1981 047   412   125  9655  14.93   1.80   7.92   2.30   5.53   0.02  0.04   3.1   5.7  13.3   5.8  26.9  24.1  0.00  0.00  0.00
 1981 048   413   126  9701  21.21   0.42  11.36   1.69   7.23   0.08  0.17   3.2   5.7  13.3   5.9  31.8  27.6  0.00  0.00  0.00
 1981 049   414   127  9746  21.27   0.00  10.80   1.44   7.54   0.24  0.26   3.2   5.8  13.4   5.9  32.2  28.3  0.00  0.00  0.00
 1981 050   415   128  9774  17.05   1.80  10.32   1.55   5.92   0.04  0.08   3.2   5.7  13.2   5.8  27.4  24.8  0.00  0.00  0.00
 1981 051   416   129  9806  18.01   1.94  11.13   1.78   6.37   0.05  0.10   3.1   5.5  13.0   5.7  28.7  25.8  0.00  0.00  0.00
 1981 052   417   130  9850  20.10   0.79  11.17   1.72   6.68   0.08  0.16   3.1   5.5  13.0   5.7  29.8  26.2  0.00  0.00  0.00
 1981 053   418   131  9888  20.04   0.83  10.97   1.63   6.98   0.08  0.16   3.1   5.5  13.0   5.7  30.3  26.9  0.00  0.00  0.00
 1981 054   419   132  9926  19.71   1.96  12.07   2.22   6.97   0.08  0.15   3.1   5.3  12.9   5.6  30.5  26.8  0.00  0.00  0.00
 1981 055   420   133  9965  20.36   0.07  10.37   1.54   7.33   0.10  0.18   3.1   5.4  12.9   5.7  31.2  27.6  0.00  0.00  0.00
 1981 056   421   134  9994  20.18   0.65  10.47   1.55   7.67   0.09  0.16   3.1   5.4  13.0   5.7  32.2  28.3  0.00  0.00  0.00
 1981 057   422   135 10016  19.20   0.00   9.23   1.24   7.61   0.18  0.20   3.2   5.4  13.1   5.8  32.0  28.3  0.00  0.00  0.00
 1981 058   423   136 10018  19.30   2.16   8.70   2.96   8.12   0.07  0.13   3.1   5.3  12.9   5.6  33.2  29.4  0.00  0.00  0.00
 1981 059   424   137 10040  17.88   1.23   9.84   1.61   6.71   0.06  0.11   3.1   5.2  12.8   5.6  28.7  26.3  0.00  0.00  0.00
 1981 060   425   138 10080  17.68   0.67   9.92   1.50   5.76   0.07  0.12   3.1   5.2  12.8   5.6  27.8  23.7  0.00  0.00  0.00
 1981 061   426   139 10105  16.90   1.64   9.87   2.03   6.17   0.06  0.10   3.0   5.1  12.7   5.5  29.3  24.8  0.00  0.00  0.00
 1981 062   427   140 10115  13.38   1.39   7.54   1.58   5.25   0.02  0.04   3.0   5.0  12.5   5.4  25.1  22.9  0.00  0.00  0.00
 1981 063   428   141  9605  16.16   1.16   8.67   2.05   4.82   0.06  0.10   3.0   5.0  12.5   5.3  24.9  21.3  0.00  0.00  0.00
 1981 064   429   142  9613  13.23   1.58   6.96   1.69   5.41   0.01  0.01   2.9   4.8  12.3   5.2  27.5  23.1  0.00  0.00  0.00
 1981 065   430   143  9625  14.84   1.67   7.95   2.12   5.58   0.02  0.03   2.9   4.7  12.0   5.1  27.7  24.2  0.00  0.00  0.00
 1981 066   431   144  9639  13.55   1.41   7.36   1.97   4.96   0.01  0.02   2.9   4.6  11.9   5.1  24.9  22.7  0.00  0.00  0.00
 1981 067   432   145  9671  15.47   1.24   8.52   2.49   4.70   0.03  0.05   2.9   4.6  11.8   5.0  25.1  21.6  0.00  0.00  0.00
 1981 068   433   146  9712  17.46   1.26   9.77   2.82   4.99   0.05  0.09   2.9   4.5  11.7   4.9  26.3  22.1  0.00  0.00  0.00
 1981 069   434   147  9759  19.35   1.31  10.85   3.10   5.33   0.08  0.15   2.9   4.5  11.6   4.9  27.1  22.8  0.00  0.00  0.00
 1981 070   435   148  9809  21.04   1.38  11.79   3.30   5.78   0.12  0.21   2.9   4.4  11.6   4.8  27.5  23.8  0.00  0.00  0.00
 1981 071   436   149  9889  22.10   0.00  10.03   1.32   5.66   2.27  1.50   3.2   5.3  12.2   4.9  27.4  23.3  0.00  0.00  0.00
 1981 072   437   150  9938  21.18   1.43  10.53   3.90   5.70   0.10  0.22   3.2   5.2  12.1   4.9  27.5  23.4  0.00  0.00  0.00
 1981 073   438   151  9974  19.26   1.53  11.06   2.70   6.03   0.08  0.17   3.2   5.1  12.0   4.8  27.2  24.5  0.00  0.00  0.00
 1981 074   439   152 10043  22.40   1.21  12.52   3.72   5.28   0.15  0.31   3.2   5.0  12.1   4.8  25.9  22.1  0.00  0.00  0.00
 1981 075   440   153 10115  19.73   0.86  11.42   3.36   4.09   0.11  0.23   3.2   5.0  12.1   4.8  21.7  19.0  0.00  0.00  0.00
 1981 076   441   154 10173  16.21   0.67   9.46   2.72   3.54   0.06  0.12   3.2   5.0  12.2   4.8  21.5  17.4  0.00  0.00  0.00
 1981 077   442   155 10244  20.47   0.92  11.87   3.31   4.49   0.14  0.27   3.2   5.0  12.3   4.8  24.5  19.7  0.00  0.00  0.00
 1981 078   443   156 10316  21.80   1.02  12.61   3.43   4.86   0.18  0.34   3.2   5.0  12.4   4.8  24.1  20.8  0.00  0.00  0.00
 1981 079   444   157 10389  20.32   0.75  11.73   3.42   3.96   0.16  0.29   3.2   5.0  12.5   4.8  21.7  18.3  0.00  0.00  0.00
 1981 080   445   158 10446  17.86   0.66  10.45   2.92   3.71   0.11  0.19   3.2   5.0  12.6   4.8  22.0  17.5  0.00  0.00  0.00
 1981 081   446   159 10512  22.23   0.90  12.87   3.47   4.70   0.22  0.39   3.2   5.0  12.7   4.8  25.1  19.8  0.00  0.00  0.00
 1981 082   447   160 10606  27.47   1.21  17.30   3.06   6.08   0.41  0.71   3.2   5.0  12.9   4.9  28.0  22.9  0.00  0.00  0.00
 1981 083   448   161 10703  26.90   0.00  13.75   1.81   5.63   2.10  1.60   3.5   5.8  13.5   5.1  25.6  21.9  0.00  0.00  0.00
 1981 084   449   162 10784  23.47   0.00  12.46   1.65   4.90   1.63  1.18   3.7   6.3  13.9   5.2  24.6  20.1  0.00  0.00  0.00
 1981 085   450   163 10865  27.02   0.00  14.95   1.97   6.13   1.08  1.01   3.8   6.7  14.3   5.4  27.4  22.8  0.00  0.00  0.00
 1981 086   451   164 10938  27.01   0.00  15.06   1.99   6.37   0.90  0.88   3.9   7.0  14.6   5.5  27.6  23.3  0.00  0.00  0.00
 1981 087   452   165 10993  27.07   0.03  15.73   2.07   7.10   0.07  0.44   3.9   7.0  14.8   5.7  28.0  25.0  0.00  0.00  0.00
 1981 088   453   166 11017  22.07   0.68  13.26   1.74   6.29   0.04  0.25   3.9   7.0  14.9   5.7  27.0  23.5  0.00  0.00  0.00
 1981 089   454   167 11041  23.76   1.65  12.40   4.06   6.20   0.06  0.30   3.8   6.8  14.9   5.6  25.7  23.2  0.00  0.00  0.00
 1981 090   455   168 11057  19.56   1.41  11.57   2.81   5.42   0.04  0.16   3.7   6.7  14.9   5.6  24.2  21.6  0.00  0.00  0.00
 1981 091   456   169 10088  24.08   1.35  13.83   3.13   5.55   0.10  0.31   3.7   6.6  14.9   5.5  25.2  21.4  0.00  0.00  0.00
 1981 092   457   170 10084  14.72   1.67   8.60   2.02   4.97   0.01  0.02   3.6   6.5  14.7   5.4  25.1  20.6  0.00  0.00  0.00
 1981 093   458   171 10083  16.00   1.84   9.57   2.38   5.05   0.01  0.03   3.6   6.4  14.5   5.3  25.7  22.0  0.00  0.00  0.00
 1981 094   459   172 10094  16.33   1.52   9.75   2.61   4.51   0.01  0.03   3.6   6.3  14.3   5.2  24.0  20.4  0.00  0.00  0.00
 1981 095   460   173 10106  17.41   1.60  10.45   2.72   4.90   0.02  0.05   3.5   6.1  14.1   5.1  26.1  21.3  0.00  0.00  0.00
 1981 096   461   174 10125  19.00   1.63  11.36   3.01   5.14   0.03  0.08   3.5   6.0  14.0   5.0  26.1  21.9  0.00  0.00  0.00
 1981 097   462   175 10143  21.99   1.92  12.98   3.28   6.33   0.06  0.14   3.4   5.9  13.8   4.9  29.6  24.5  0.00  0.00  0.00
 1981 098   463   176 10159  22.15   1.83  13.08   3.34   6.18   0.08  0.18   3.4   5.8  13.7   4.9  28.2  24.2  0.00  0.00  0.00
 1981 099   464   177 10163  20.09   1.63  11.90   2.95   5.75   0.07  0.15   3.4   5.7  13.5   4.8  27.1  23.3  0.00  0.00  0.00
 1981 100   465   178 10147  16.51   1.48   9.85   2.19   5.37   0.04  0.08   3.3   5.6  13.4   4.7  25.2  22.8  0.00  0.00  0.00
 1981 101   466   179 10136  18.07   1.54  10.51   2.41   5.85   0.06  0.13   3.3   5.5  13.3   4.6  27.1  23.9  0.00  0.00  0.00
 1981 102   467   180 10144  20.54   1.46  11.81   2.91   5.93   0.11  0.22   3.3   5.4  13.3   4.5  26.6  23.9  0.00  0.00  0.00
 1981 103   468   181 10158  18.62   1.11  10.84   2.77   4.88   0.09  0.18   3.3   5.3  13.3   4.5  24.1  21.2  0.00  0.00  0.00
 1981 104   469   182 10159  15.47   0.96   9.14   2.16   4.40   0.05  0.10   3.2   5.3  13.2   4.4  22.6  20.2  0.00  0.00  0.00
 1981 105   470   183 10194  19.28   0.79  11.06   3.19   4.03   0.13  0.24   3.2   5.2  13.3   4.4  21.0  18.8  0.00  0.00  0.00
 1981 106   471   184 10225  17.53   0.67  10.32   2.82   3.69   0.10  0.18   3.2   5.2  13.3   4.4  21.3  17.8  0.00  0.00  0.00
 1981 107   472   185 10258  18.77   0.75  11.04   2.93   4.05   0.13  0.23   3.2   5.2  13.4   4.4  22.2  18.7  0.00  0.00  0.00
 1981 108   473   186 10293  19.78   0.80  11.55   3.03   4.34   0.16  0.28   3.2   5.2  13.5   4.4  23.8  19.3  0.00  0.00  0.00
 1981 109   474   187 10333  22.30   0.94  12.91   3.28   4.98   0.23  0.41   3.2   5.2  13.6   4.4  25.3  20.9  0.00  0.00  0.00
 1981 110   475   188 10371  22.42   0.94  12.93   3.28   5.02   0.25  0.42   3.2   5.2  13.7   4.4  25.4  20.9  0.00  0.00  0.00
 1981 111   476   189 10405  23.45   1.00  13.48   3.33   5.37   0.29  0.48   3.2   5.2  13.8   4.5  26.5  21.7  0.00  0.00  0.00
 1981 112   477   190 10432  23.15   1.08  13.38   3.11   5.68   0.29  0.45   3.2   5.2  13.9   4.5  26.5  22.5  0.00  0.00  0.00
 1981 113   478   191 10482  22.82   0.87  13.02   3.44   4.79   0.30  0.45   3.2   5.3  14.0   4.6  23.1  20.3  0.00  0.00  0.00
 1981 114   479   192 10521  17.20   0.51  10.06   2.82   3.34   0.12  0.18   3.2   5.3  14.1   4.6  19.4  16.5  0.00  0.00  0.00
 1981 115   480   193 10535  14.45   0.64   8.80   1.98   3.69   0.06  0.08   3.2   5.2  14.1   4.5  20.2  17.8  0.00  0.00  0.00
 1981 116   481   194 10579  20.40   0.83  11.91   2.96   4.57   0.22  0.30   3.2   5.2  14.2   4.6  22.0  19.9  0.00  0.00  0.00
 1981 117   482   195 10628  20.00   0.72  11.74   3.04   4.13   0.21  0.28   3.2   5.2  14.3   4.6  21.0  18.6  0.00  0.00  0.00
 1981 118   483   196 10667  15.71   0.56   9.41   2.38   3.46   0.09  0.12   3.2   5.2  14.3   4.6  18.5  16.9  0.00  0.00  0.00
 1981 119   484   197 10722  17.16   0.47  10.08   2.84   3.20   0.13  0.17   3.2   5.2  14.4   4.6  18.5  15.9  0.00  0.00  0.00
 1981 120   485   198 10769  16.10   0.49   9.66   2.51   3.30   0.10  0.13   3.2   5.2  14.4   4.6  19.8  16.1  0.00  0.00  0.00
 1981 121   486   199 10818  16.97   0.54  10.14   2.63   3.46   0.12  0.15   3.2   5.2  14.5   4.6  20.2  16.5  0.00  0.00  0.00
 1981 122   487   200 10867  18.14   0.66  10.91   2.65   3.94   0.15  0.18   3.2   5.2  14.5   4.6  22.2  17.7  0.00  0.00  0.00
 1981 123   488   201 10912  20.56   0.92  12.42   2.70   4.96   0.22  0.26   3.2   5.2  14.6   4.7  24.8  20.3  0.00  0.00  0.00
 1981 124   489   202 10968  24.15   1.07  14.21   3.22   5.62   0.36  0.41   3.2   5.3  14.6   4.7  25.8  21.7  0.00  0.00  0.00
 1981 125   490   203 11015  26.84   1.45  15.88   3.00   7.34   0.45  0.50   3.2   5.3  14.7   4.8  29.3  25.4  0.00  0.00  0.00
 1981 126   491   204 11028  18.91   1.21  11.57   2.05   5.79   0.16  0.17   3.2   5.3  14.7   4.8  24.7  22.7  0.00  0.00  0.00
 1981 127   492   205 11073  26.44   1.42  15.21   3.21   7.08   0.45  0.47   3.2   5.3  14.8   4.9  28.7  24.8  0.00  0.00  0.00
 1981 128   493   206 11121  26.45   1.45  15.56   3.07   7.17   0.44  0.45   3.2   5.3  14.8   5.0  28.8  25.0  0.00  0.00  0.00
 1981 129   494   207 11144  21.42   1.36  13.00   2.32   6.45   0.24  0.24   3.1   5.3  14.8   5.0  26.7  23.8  0.00  0.00  0.00
 1981 130   495   208 11178  22.63   1.30  13.38   2.73   6.30   0.29  0.28   3.1   5.3  14.9   5.0  26.3  23.3  0.00  0.00  0.00
 1981 131   496   209 11201  21.67   1.39  13.15   2.30   6.60   0.25  0.24   3.1   5.3  14.9   5.0  26.8  24.1  0.00  0.00  0.00
 1981 132   497   210 11235  24.19   1.44  14.18   2.79   6.96   0.36  0.33   3.1   5.3  14.9   5.0  28.2  24.6  0.00  0.00  0.00
 1981 133   498   211 11264  22.50   1.37  13.46   2.53   6.58   0.29  0.27   3.1   5.2  14.9   5.0  27.3  23.8  0.00  0.00  0.00
 1981 134   499   212 11300  18.24   0.94  10.88   2.42   4.76   0.16  0.15   3.1   5.2  14.9   5.0  22.0  19.8  0.00  0.00  0.00
 1981 135   500   213 11345  15.41   0.57   9.14   2.32   3.49   0.09  0.08   3.1   5.2  14.9   5.0  19.2  16.4  0.00  0.00  0.00
 1981 136   501   214 11387  16.64   0.75  10.17   2.21   4.17   0.12  0.11   3.0   5.2  14.9   5.0  22.4  18.0  0.00  0.00  0.00
 1981 137   502   215 11438  21.26   1.08  12.87   2.67   5.43   0.26  0.23   3.0   5.2  14.9   5.0  24.2  21.1  0.00  0.00  0.00
 1981 138   503   216 11483  22.04   1.22  13.30   2.62   5.99   0.29  0.25   3.0   5.2  14.9   5.0  25.8  22.3  0.00  0.00  0.00
 1981 139   504   217 11520  21.95   1.33  13.24   2.45   6.38   0.28  0.24   3.0   5.2  15.0   5.0  26.9  23.1  0.00  0.00  0.00
 1981 140   505   218 11569  15.03   0.50   8.69   2.40   3.28   0.08  0.07   3.0   5.2  15.0   5.0  18.0  15.6  0.00  0.00  0.00
 1981 141   506   219 11605  13.52   0.59   8.28   1.76   3.58   0.05  0.04   3.0   5.2  15.0   5.0  20.7  16.3  0.00  0.00  0.00
 1981 142   507   220 11651  20.33   1.07  12.38   2.47   5.39   0.23  0.20   3.0   5.2  15.0   5.0  24.5  20.8  0.00  0.00  0.00
 1981 143   508   221 11689  22.32   1.35  13.53   2.44   6.50   0.31  0.25   3.0   5.2  15.0   5.0  26.6  23.2  0.00  0.00  0.00
 1981 144   509   222 11726  21.48   1.27  12.85   2.47   6.18   0.27  0.22   3.0   5.2  15.0   5.0  26.2  22.5  0.00  0.00  0.00
 1981 145   510   223 11732  13.80   1.01   8.68   1.23   4.91   0.05  0.04   3.0   5.1  14.9   5.0  22.3  20.1  0.00  0.00  0.00
 1981 146   511   224 11768  13.64   0.58   7.77   2.03   3.52   0.05  0.04   2.9   5.1  14.9   5.0  18.0  16.3  0.00  0.00  0.00
 1981 147   512   225  9942  14.07   0.48   8.40   2.08   3.25   0.06  0.05   2.9   5.1  14.9   5.0  18.0  15.4  0.00  0.00  0.00
 1981 148   513   226  9952   9.13   0.98   5.40   0.90   3.89   0.00  0.00   2.9   5.1  14.8   4.9  20.9  17.4  0.00  0.00  0.00
 1981 149   514   227  9965  11.01   1.23   6.57   1.45   3.94   0.00  0.00   2.9   5.0  14.7   4.9  23.0  19.3  0.00  0.00  0.00
 1981 150   515   228  9978  11.08   1.18   6.76   1.39   3.94   0.00  0.00   2.9   4.9  14.6   4.8  23.4  19.2  0.00  0.00  0.00
 1981 151   516   229  9994  11.78   1.20   7.10   1.53   4.08   0.01  0.01   2.9   4.8  14.4   4.8  23.6  19.6  0.00  0.00  0.00
 1981 152   517   230 10010  13.22   1.33   7.96   1.70   4.56   0.02  0.03   2.9   4.8  14.3   4.7  24.9  20.9  0.00  0.00  0.00
 1981 153   518   231 10022   7.90   0.66   4.66   0.93   2.88   0.00  0.00   2.9   4.7  14.2   4.7  17.7  16.2  0.00  0.00  0.00
 1981 154   519   232 10039   5.64   0.24   3.06   0.71   1.97   0.00  0.00   3.0   4.7  14.2   4.7  14.9  12.8  0.00  0.00  0.00
 1981 155   520   233 10039   3.48   0.30   1.70   0.21   1.91   0.00  0.00   3.0   4.7  14.2   4.7  16.2  12.4  0.00  0.00  0.00
 1981 156   521   234 10047   5.45   0.40   2.88   0.60   2.27   0.00  0.00   3.0   4.7  14.1   4.6  17.6  13.8  0.00  0.00  0.00
 1981 157   522   235 10061   8.29   0.63   4.79   1.05   2.90   0.00  0.00   3.0   4.6  14.1   4.6  17.7  16.2  0.00  0.00  0.00
 1981 158   523   236 10083   6.67   0.26   3.65   0.94   2.08   0.00  0.00   3.0   4.6  14.1   4.6  15.1  13.1  0.00  0.00  0.00
 1981 159   524   237 10103   6.33   0.25   3.52   0.85   2.02   0.00  0.00   3.0   4.6  14.1   4.6  15.2  12.9  0.00  0.00  0.00
 1981 160   525   238 10109   5.53   0.46   3.16   0.47   2.45   0.00  0.00   3.0   4.6  14.0   4.6  18.8  14.3  0.00  0.00  0.00
 1981 161   526   239 10124   6.24   0.31   3.25   0.85   2.18   0.00  0.00   3.0   4.6  14.0   4.5  16.3  13.5  0.00  0.00  0.00
 1981 162   527   240 10142   6.11   0.26   3.36   0.79   2.05   0.00  0.00   3.0   4.6  14.0   4.5  15.6  12.9  0.00  0.00  0.00
 1981 163   528   241 10135   2.56   0.27   0.85   0.11   1.85   0.00  0.00   3.0   4.5  14.0   4.5  16.1  12.1  0.00  0.00  0.00
 1981 164   529   242 10130   1.95   0.18   0.43   0.05   1.60   0.00  0.00   3.0   4.5  13.9   4.5  14.6  11.1  0.00  0.00  0.00
 1981 165   530   243 10125   1.78   0.15   0.34   0.04   1.50   0.00  0.00   2.9   4.5  13.9   4.5  13.9  10.7  0.00  0.00  0.00
 1981 166   531   244 10149  10.01   0.57   5.37   1.60   2.96   0.00  0.00   2.9   4.5  13.9   4.5  18.9  16.1  0.00  0.00  0.00
 1981 167   532   245 10170   5.57   0.12   2.95   0.79   1.73   0.00  0.00   3.0   4.5  13.9   4.5  13.4  11.7  0.00  0.00  0.00
 1981 168   533   246 10175   2.59   0.09   1.18   0.15   1.41   0.00  0.00   3.0   4.5  13.9   4.5  12.7  10.3  0.00  0.00  0.00
 1981 169   534   247 10177   2.89   0.18   1.29   0.16   1.67   0.00  0.00   3.0   4.5  13.9   4.5  14.6  11.4  0.00  0.00  0.00
 1981 170   535   248 10176   3.61   0.29   1.75   0.22   2.00   0.00  0.00   3.0   4.4  13.8   4.4  16.7  12.6  0.00  0.00  0.00
 1981 171   536   249 10166   0.90   0.19   0.00   0.00   1.58   0.00  0.00   2.9   4.4  13.8   4.4  14.8  10.9  0.00  0.00  0.00
 1981 172   537   250 10167   5.49   0.47   2.89   0.49   2.58   0.00  0.00   2.9   4.4  13.8   4.4  19.7  14.6  0.00  0.00  0.00
 1981 173   538   251 10186   6.36   0.22   3.24   0.95   2.04   0.00  0.00   2.9   4.4  13.8   4.4  15.1  12.9  0.00  0.00  0.00
 1981 174   539   252 10217   9.22   0.36   5.34   1.39   2.47   0.00  0.00   2.9   4.4  13.7   4.4  16.2  14.4  0.00  0.00  0.00
 1981 175   540   253 10243   8.56   0.34   4.89   1.25   2.44   0.00  0.00   3.0   4.3  13.7   4.4  16.8  14.3  0.00  0.00  0.00
 1981 176   541   254 10265   8.82   0.45   5.13   1.17   2.76   0.00  0.00   3.0   4.3  13.7   4.4  19.2  15.2  0.00  0.00  0.00
 1981 177   542   255 10295  16.21   1.09   9.64   2.05   4.96   0.08  0.12   3.0   4.3  13.6   4.3  25.2  21.5  0.00  0.00  0.00
 1981 178   543   256 10320  14.53   0.93   8.55   1.87   4.47   0.05  0.08   3.0   4.2  13.6   4.3  23.6  20.2  0.00  0.00  0.00
 1981 179   544   257 10341  12.22   0.75   7.21   1.56   3.85   0.02  0.03   2.9   4.2  13.6   4.3  20.4  18.7  0.00  0.00  0.00
 1981 180   545   258 10366  13.53   0.78   7.94   1.76   4.10   0.04  0.06   2.9   4.2  13.5   4.3  21.3  19.3  0.00  0.00  0.00
 1981 181   546   259 10398  14.70   0.77   8.60   1.99   4.17   0.07  0.10   2.9   4.1  13.5   4.3  21.4  19.4  0.00  0.00  0.00
 1981 182   547   260 10422   6.88   0.15   3.62   1.07   1.97   0.00  0.00   2.9   4.1  13.5   4.2  14.6  12.4  0.00  0.00  0.00
 1981 183   548   261 10435   3.94   0.07   1.90   0.48   1.52   0.00  0.00   3.0   4.1  13.5   4.2  12.8  10.7  0.00  0.00  0.00
 1981 184   549   262 10446   5.57   0.25   3.01   0.59   2.16   0.00  0.00   2.9   4.1  13.5   4.2  16.9  13.0  0.00  0.00  0.00
 1981 185   550   263 10461   6.25   0.23   3.30   0.82   2.15   0.00  0.00   2.9   4.1  13.5   4.2  16.5  13.0  0.00  0.00  0.00
 1981 186   551   264 10482   7.47   0.25   4.10   1.04   2.30   0.00  0.00   3.0   4.1  13.5   4.2  16.8  13.5  0.00  0.00  0.00
 1981 187   552   265 10515  10.52   0.36   6.07   1.57   2.79   0.00  0.00   3.0   4.1  13.5   4.2  18.0  15.1  0.00  0.00  0.00
 1981 188   553   266 10545  10.28   0.37   5.96   1.48   2.83   0.00  0.00   3.0   4.1  13.5   4.2  18.6  15.2  0.00  0.00  0.00
 1981 189   554   267 10578  11.48   0.43   6.70   1.64   3.13   0.01  0.02   3.0   4.0  13.5   4.2  19.7  16.0  0.00  0.00  0.00
 1981 190   555   268 10610  11.79   0.45   6.87   1.67   3.20   0.02  0.03   3.0   4.0  13.5   4.2  20.0  16.2  0.00  0.00  0.00
 1981 191   556   269 10651  13.92   0.52   8.15   2.00   3.53   0.06  0.09   3.0   4.0  13.5   4.2  20.5  17.1  0.00  0.00  0.00
 1981 192   557   270 10684  11.74   0.43   6.88   1.69   3.10   0.02  0.03   3.0   4.0  13.5   4.1  17.6  16.1  0.00  0.00  0.00
 1981 193   558   271 10729  17.69   0.78  10.41   2.25   4.73   0.17  0.24   3.0   4.0  13.5   4.2  23.5  20.3  0.00  0.00  0.00
 1981 194   559   272 10751  13.29   0.67   7.88   1.58   4.11   0.05  0.07   3.0   4.0  13.5   4.2  21.0  18.9  0.00  0.00  0.00
 1981 195   560   273 10791  20.07   0.98  11.46   2.39   5.76   0.26  0.36   3.0   4.0  13.6   4.2  25.8  22.7  0.00  0.00  0.00
 1981 196   561   274 10813  17.01   0.96   9.99   1.80   5.53   0.15  0.20   2.9   4.0  13.6   4.2  25.3  22.4  0.00  0.00  0.00
 1981 197   562   275 10835  11.90   0.55   6.82   1.55   3.62   0.02  0.03   2.9   4.0  13.6   4.2  19.5  17.5  0.00  0.00  0.00
 1981 198   563   276 10856   5.71   0.08   2.83   0.88   1.71   0.00  0.00   2.9   4.0  13.6   4.2  13.1  11.2  0.00  0.00  0.00
 1981 199   564   277 10869   5.28   0.17   2.84   0.57   1.98   0.00  0.00   2.9   4.0  13.6   4.2  15.5  12.0  0.00  0.00  0.00
 1981 200   565   278 10864   0.43   0.06   0.00   0.00   1.30   0.00  0.00   2.9   4.0  13.6   4.2  12.4   9.4  0.00  0.00  0.00
 1981 201   566   279 10891   7.59   0.14   3.72   1.32   2.03   0.00  0.00   2.9   4.0  13.6   4.2  14.6  12.3  0.00  0.00  0.00
 1981 202   567   280 10923   8.07   0.14   4.52   1.26   2.03   0.00  0.00   2.9   4.0  13.6   4.2  14.6  12.2  0.00  0.00  0.00
 1981 203   568   281 10056   6.21   0.09   3.30   0.93   1.76   0.00  0.00   3.0   4.0  13.6   4.2  13.5  11.2  0.00  0.00  0.00
 1981 204   569   282 10066   3.30   0.10   1.67   0.21   1.61   0.00  0.00   3.0   4.0  13.6   4.2  12.6  10.8  0.00  0.00  0.00
 1981 205   570   283 10060   0.95   0.13   0.00   0.00   1.34   0.00  0.00   3.0   4.0  13.6   4.2  13.1  10.1  0.00  0.00  0.00
 1981 206   571   284 10074   4.81   0.21   2.42   0.60   1.81   0.00  0.00   3.0   3.9  13.6   4.2  14.4  12.1  0.00  0.00  0.00
 1981 207   572   285 10089   5.88   0.35   3.31   0.69   2.13   0.00  0.00   3.0   3.9  13.5   4.1  16.3  13.3  0.00  0.00  0.00
 1981 208   573   286 10096   5.63   0.47   3.20   0.55   2.38   0.00  0.00   3.0   3.9  13.5   4.1  18.3  14.1  0.00  0.00  0.00
 1981 209   574   287 10113   7.56   0.50   4.19   1.04   2.54   0.00  0.00   3.0   3.9  13.4   4.1  18.3  14.7  0.00  0.00  0.00
 1981 210   575   288 10141  13.72   1.11   8.26   1.91   4.17   0.03  0.04   3.0   3.9  13.3   4.1  23.6  19.6  0.00  0.00  0.00
 1981 211   576   289 10160  11.04   0.89   6.64   1.44   3.62   0.00  0.01   3.0   3.8  13.2   4.1  21.0  18.2  0.00  0.00  0.00
 1981 212   577   290 10174  10.97   0.93   6.55   1.37   3.78   0.00  0.00   3.0   3.8  13.1   4.0  21.3  18.7  0.00  0.00  0.00
 1981 213   578   291 10207  14.66   1.00   8.57   2.13   4.20   0.04  0.07   3.0   3.8  13.0   4.0  22.8  19.6  0.00  0.00  0.00
 1981 214   579   292 10242  16.46   1.11   9.77   2.26   4.76   0.07  0.12   3.0   3.7  12.9   4.0  25.2  20.9  0.00  0.00  0.00
 1981 215   580   293 10277  19.26   1.35  11.24   2.48   5.86   0.14  0.22   3.0   3.7  12.9   4.0  28.0  23.5  0.00  0.00  0.00
 1981 216   581   294 10314  19.67   1.31  11.33   2.54   5.94   0.15  0.26   3.0   3.7  12.8   4.0  28.1  23.6  0.00  0.00  0.00
 1981 217   582   295 10339  19.03   1.37  11.02   2.20   6.32   0.14  0.24   3.0   3.7  12.7   4.0  28.4  24.7  0.00  0.00  0.00
 1981 218   583   296 10348  13.63   1.03   7.95   1.48   4.98   0.04  0.07   3.0   3.7  12.7   4.0  24.3  21.8  0.00  0.00  0.00
 1981 219   584   297 10357  12.56   0.89   7.22   1.42   4.55   0.02  0.04   3.0   3.6  12.6   3.9  22.9  20.7  0.00  0.00  0.00
 1981 220   585   298 10404  14.24   0.48   7.91   2.38   3.23   0.06  0.11   3.0   3.6  12.6   3.9  18.8  16.5  0.00  0.00  0.00
 1981 221   586   299 10400   1.58   0.08   0.22   0.03   1.37   0.00  0.00   3.0   3.6  12.6   3.9  12.9  10.0  0.00  0.00  0.00
 1981 222   587   300 10409   5.65   0.26   2.80   0.69   2.21   0.00  0.00   3.0   3.6  12.6   3.9  17.4  13.1  0.00  0.00  0.00
 1981 223   588   301 10403   4.29   0.34   1.99   0.25   2.45   0.00  0.00   3.0   3.6  12.6   3.9  19.4  13.9  0.00  0.00  0.00
 1981 224   589   302 10435   9.71   0.27   4.96   1.72   2.45   0.00  0.00   3.0   3.6  12.6   3.9  17.1  14.0  0.00  0.00  0.00
 1981 225   590   303 10477  11.22   0.29   6.54   1.78   2.61   0.01  0.02   3.0   3.6  12.6   3.9  17.3  14.5  0.00  0.00  0.00
 1981 226   591   304 10498   7.29   0.25   4.11   0.95   2.29   0.00  0.00   3.0   3.6  12.6   3.9  17.2  13.4  0.00  0.00  0.00
 1981 227   592   305 10532  11.64   0.41   6.70   1.72   3.08   0.02  0.03   3.0   3.6  12.6   3.9  20.3  15.8  0.00  0.00  0.00
 1981 228   593   306 10582  16.16   0.59   9.37   2.33   3.96   0.11  0.20   3.0   3.6  12.6   3.9  23.1  18.2  0.00  0.00  0.00
 1981 229   594   307 10642  18.08   0.61  10.40   2.69   4.05   0.18  0.31   3.0   3.6  12.7   3.9  22.1  18.4  0.00  0.00  0.00
 1981 230   595   308 10692  14.62   0.44   8.48   2.24   3.35   0.08  0.13   3.0   3.6  12.7   4.0  20.3  16.4  0.00  0.00  0.00
 1981 231   596   309 10724   9.76   0.28   5.62   1.46   2.56   0.00  0.00   3.0   3.6  12.7   3.9  17.9  14.0  0.00  0.00  0.00
 1981 232   597   310 10755  10.10   0.32   5.87   1.46   2.72   0.00  0.00   3.0   3.6  12.7   3.9  18.8  14.5  0.00  0.00  0.00
 1981 233   598   311 10793  13.36   0.47   7.81   1.88   3.50   0.05  0.08   3.0   3.6  12.7   3.9  22.1  16.6  0.00  0.00  0.00
 1981 234   599   312 10849  16.37   0.50   9.39   2.47   3.69   0.13  0.23   3.0   3.6  12.8   4.0  21.6  17.1  0.00  0.00  0.00
 1981 235   600   313 10910  18.34   0.58  10.60   2.63   4.14   0.20  0.34   3.1   3.7  12.9   4.0  23.1  18.2  0.00  0.00  0.00
 1981 236   601   314 10982  20.63   0.65  11.77   2.97   4.43   0.31  0.51   3.1   3.8  13.0   4.1  23.0  18.9  0.00  0.00  0.00
 1981 237   602   315 11030  15.53   0.52   9.10   2.22   3.70   0.11  0.18   3.1   3.8  13.0   4.1  20.4  17.2  0.00  0.00  0.00
 1981 238   603   316 11076  15.31   0.54   9.00   2.14   3.75   0.10  0.17   3.1   3.8  13.1   4.1  19.5  17.4  0.00  0.00  0.00
 1981 239   604   317 11130  14.88   0.39   8.58   2.35   3.17   0.09  0.15   3.1   3.8  13.1   4.1  17.4  15.7  0.00  0.00  0.00
 1981 240   605   318 11185  14.39   0.35   8.41   2.24   3.05   0.08  0.13   3.1   3.9  13.1   4.2  18.9  15.1  0.00  0.00  0.00
 1981 241   606   319 11255  19.61   0.61  11.51   2.76   4.17   0.26  0.42   3.1   3.9  13.2   4.2  20.8  18.2  0.00  0.00  0.00
 1981 242   607   320 11327  18.28   0.45  10.50   2.89   3.48   0.21  0.33   3.1   4.0  13.3   4.3  19.3  16.2  0.00  0.00  0.00
 1981 243   608   321 11391  14.24   0.24   8.23   2.42   2.61   0.08  0.12   3.1   4.0  13.4   4.3  16.0  13.7  0.00  0.00  0.00
 1981 244   609   322 11445  12.32   0.20   7.18   2.04   2.45   0.03  0.05   3.1   4.0  13.4   4.3  14.4  13.3  0.00  0.00  0.00
 1981 245   610   323 11500  12.69   0.23   7.45   2.06   2.56   0.04  0.06   3.1   4.0  13.4   4.3  14.8  13.6  0.00  0.00  0.00
 1981 246   611   324 11559  14.97   0.38   8.98   2.24   3.11   0.09  0.14   3.2   4.1  13.5   4.3  16.1  15.2  0.00  0.00  0.00
 1981 247   612   325 11628  15.34   0.25   8.85   2.53   2.70   0.10  0.16   3.2   4.1  13.5   4.4  16.1  13.7  0.00  0.00  0.00
 1981 248   613   326 11676  13.12   0.37   8.00   1.80   3.00   0.05  0.07   3.2   4.1  13.6   4.4  18.9  14.5  0.00  0.00  0.00
 1981 249   614   327 11732  15.71   0.46   9.34   2.23   3.47   0.11  0.17   3.2   4.1  13.6   4.4  20.5  15.7  0.00  0.00  0.00
 1981 250   615   328 11828  24.48   0.28  14.89   1.94   5.22   0.47  0.70   3.2   4.3  13.8   4.6  25.4  19.6  0.00  0.00  0.00
 1981 251   616   329 11942  30.78   1.19  18.75   3.22   6.82   0.81  1.19   3.2   4.5  14.0   4.8  27.6  22.9  0.00  0.00  0.00
 1981 252   617   330 12037  28.78   1.37  18.83   2.41   7.30   0.62  0.89   3.2   4.7  14.2   4.9  28.1  24.0  0.00  0.00  0.00
 1981 253   618   331 12097  17.33   0.68  11.22   2.07   4.04   0.13  0.19   3.2   4.7  14.2   4.9  18.8  17.3  0.00  0.00  0.00
 1981 254   619   332 12159  17.21   0.67  11.22   1.49   4.01   0.13  0.19   3.2   4.7  14.2   4.9  19.5  17.1  0.00  0.00  0.00
 1981 255   620   333 12226  21.35   0.85  12.55   2.93   4.75   0.27  0.38   3.2   4.7  14.3   5.0  20.8  18.8  0.00  0.00  0.00
 1981 256   621   334 12286  16.19   0.48   9.49   2.50   3.34   0.11  0.15   3.2   4.7  14.3   5.0  15.9  15.3  0.00  0.00  0.00
 1981 257   622   335 12360  17.73   0.00  10.60   1.41   3.79   0.47  0.44   3.3   4.9  14.4   5.1  18.6  16.3  0.00  0.00  0.00
 1981 258   623   336 12437  13.39   0.00   6.19   0.86   2.43   1.63  1.21   3.5   5.4  14.7   5.1  14.2  12.5  0.00  0.00  0.00
 1981 259   624   337 10879   8.11   0.29   5.19   0.70   2.41   0.00  0.00   3.4   5.4  14.7   5.1  16.2  12.4  0.00  0.00  0.00
 1981 260   625   338 10900   8.73   0.87   5.64   0.73   3.42   0.00  0.00   3.4   5.3  14.6   5.1  19.9  15.5  0.00  0.00  0.00
 1981 261   626   339 10949  17.69   1.51  11.74   1.54   5.04   0.04  0.07   3.4   5.3  14.5   5.1  25.3  20.8  0.00  0.00  0.00
 1981 262   627   340 10981  11.41   1.18   8.09   1.06   3.66   0.00  0.01   3.4   5.2  14.3   5.0  18.7  17.6  0.00  0.00  0.00
 1981 263   628   341 11016  11.10   0.97   7.68   1.02   3.32   0.00  0.00   3.4   5.2  14.2   5.0  17.7  16.5  0.00  0.00  0.00
 1981 264   629   342 11051   8.24   0.38   5.23   0.71   2.30   0.00  0.00   3.4   5.2  14.2   5.0  15.2  13.2  0.00  0.00  0.00
 1981 265   630   343 11083   8.82   0.41   5.51   0.74   2.58   0.00  0.00   3.4   5.1  14.2   5.0  16.7  14.1  0.00  0.00  0.00
 1981 266   631   344 11110  11.50   0.95   6.43   1.86   3.37   0.00  0.01   3.4   5.1  14.1   5.0  17.8  16.6  0.00  0.00  0.00
 1981 267   632   345 11143  12.47   0.68   7.79   1.03   3.78   0.01  0.02   3.4   5.1  14.0   5.0  19.5  17.7  0.00  0.00  0.00
 1981 268   633   346 11192  15.80   1.40  11.01   1.64   4.52   0.03  0.07   3.4   5.0  13.9   5.0  21.3  19.5  0.00  0.00  0.00
 1981 269   634   347 11262  21.30   0.00  12.61   1.67   5.62   0.13  0.24   3.4   5.1  14.0   5.1  25.5  21.7  0.00  0.00  0.00
 1981 270   635   348 11329  22.49   0.65  13.62   1.80   6.25   0.11  0.24   3.4   5.1  14.0   5.1  27.8  22.9  0.00  0.00  0.00
 1981 271   636   349 11391  22.32   1.97  14.71   2.17   6.38   0.11  0.23   3.4   5.0  13.8   5.1  27.3  23.2  0.00  0.00  0.00
 1981 272   637   350 11417   7.94   0.32   4.04   1.30   2.29   0.00  0.00   3.4   5.0  13.8   5.1  15.2  12.9  0.00  0.00  0.00
 1981 273   638   351 11427   4.58   0.27   2.37   0.47   1.97   0.00  0.00   3.4   5.0  13.8   5.1  14.9  11.8  0.00  0.00  0.00
 1981 274   639   352 11418   3.39   0.48   1.37   0.17   2.36   0.00  0.00   3.4   5.0  13.7   5.1  17.8  13.0  0.00  0.00  0.00
 1981 275   640   353 11446  13.43   1.00   6.95   2.30   3.95   0.02  0.04   3.3   4.9  13.7   5.0  22.8  17.4  0.00  0.00  0.00
 1981 276   641   354 11518  21.32   1.46  13.81   2.32   5.35   0.11  0.25   3.3   4.9  13.6   5.0  25.5  20.6  0.00  0.00  0.00
 1981 277   642   355 11566  14.02   0.86   9.13   1.50   3.66   0.02  0.06   3.3   4.9  13.5   5.0  18.1  16.9  0.00  0.00  0.00
 1981 278   643   356 11617  13.33   0.00   7.23   0.96   3.44   0.51  0.51   3.4   5.0  13.7   5.0  17.8  16.2  0.00  0.00  0.00
 1981 279   644   357 11655  15.67   1.02   8.30   2.74   4.14   0.04  0.09   3.4   5.0  13.6   5.0  19.9  18.0  0.00  0.00  0.00
 1981 280   645   358 11711  14.54   0.55   8.40   2.45   3.07   0.03  0.08   3.4   5.0  13.6   5.0  17.3  14.9  0.00  0.00  0.00
 1981 281   646   359 11736   7.28   0.00   4.02   0.55   2.34   0.01  0.01   3.4   5.0  13.6   5.0  16.2  12.7  0.00  0.00  0.00
 1981 282   647   360 11738   4.17   0.32   2.00   0.27   2.16   0.00  0.00   3.4   5.0  13.6   5.0  16.1  12.1  0.00  0.00  0.00
 1981 283   648   361 11756   7.44   0.47   4.44   0.78   2.66   0.00  0.00   3.4   5.0  13.6   5.0  18.1  13.7  0.00  0.00  0.00
 1981 284   649   362 11820  14.37   0.00   7.30   0.98   3.30   0.97  0.94   3.5   5.3  13.8   5.0  19.2  15.4  0.00  0.00  0.00
 1981 285   650   363 11895  17.29   0.77  11.32   2.39   3.73   0.06  0.15   3.5   5.3  13.8   5.0  20.1  16.4  0.00  0.00  0.00
 1981 286   651   364 11959  15.53   0.00   8.77   1.37   3.63   0.42  0.44   3.5   5.4  13.9   5.1  20.4  16.1  0.00  0.00  0.00
 1981 287   652   365 12037  18.37   0.00   9.41   1.25   4.22   1.18  1.18   3.7   5.9  14.1   5.1  22.1  17.5  0.00  0.00  0.00
 1981 288   653   366 12134  24.98   1.41  16.22   3.33   5.60   0.13  0.42   3.7   5.8  14.1   5.2  24.8  20.4  0.00  0.00  0.00
 1981 289   654   367 12215  22.04   0.99  12.82   3.80   4.40   0.10  0.31   3.6   5.8  14.1   5.2  20.6  17.8  0.00  0.00  0.00
 1981 290   655   368 12236   7.01   0.35   4.13   0.72   2.38   0.00  0.00   3.6   5.8  14.1   5.2  16.2  12.5  0.00  0.00  0.00
 1981 291   656   369 12278  10.92   0.00   5.63   0.75   2.99   0.55  0.48   3.7   6.0  14.2   5.2  18.5  14.2  0.00  0.00  0.00
 1981 292   657   370 12360  18.80   0.82  12.32   2.11   3.94   0.06  0.19   3.7   5.9  14.2   5.2  19.9  16.6  0.00  0.00  0.00
 1981 293   658   371 12468  22.91   0.00  10.57   1.40   4.62   2.37  2.30   3.9   6.7  14.7   5.3  20.8  18.1  0.00  0.00  0.00
 1981 294   659   372 12563  22.54   0.00  12.50   1.82   4.83   0.86  1.00   4.0   7.0  14.9   5.5  22.4  18.4  0.00  0.00  0.00
 1981 295   660   373 12662  22.33   0.00  10.48   1.39   4.72   2.08  2.05   4.3   7.7  15.3   5.6  22.1  18.1  0.00  0.00  0.00
 1981 296   661   374 12743  22.39   0.00  12.43   1.73   5.47   0.56  0.75   4.3   7.9  15.5   5.7  25.2  19.6  0.00  0.00  0.00
 1981 297   662   375 12839  29.18   2.08  18.58   3.87   7.11   0.00  0.50   4.2   7.7  15.4   5.8  28.1  22.6  0.00  0.00  0.00
 1981 298   663   376 12927  28.84   0.00  14.82   1.93   7.71   1.03  1.37   4.4   8.0  15.7   6.0  28.4  23.9  0.00  0.00  0.00
 1981 299   664   377 12966  19.67   1.93  12.90   1.85   6.16   0.00  0.15   4.3   7.9  15.6   5.9  23.4  21.5  0.00  0.00  0.00
 1981 300   665   378 13044  24.51   0.60  14.60   2.19   6.33   0.00  0.32   4.2   7.8  15.7   6.1  23.9  21.4  0.00  0.00  0.00
 1981 301   666   379 13151  29.40   0.00  14.68   1.94   7.27   1.45  1.72   4.4   8.3  16.0   6.3  25.5  22.9  0.00  0.00  0.00
 1981 302   667   380 13253  31.68   0.00  17.65   2.50   8.36   0.03  0.47   4.4   8.3  16.1   6.5  28.4  24.7  0.00  0.00  0.00
 1981 303   668   381 13353  32.79   2.92  21.13   3.65   9.09   0.00  0.45   4.3   8.0  16.0   6.7  29.4  25.8  0.00  0.00  0.00
 1981 304   669   382 13443  33.80   0.00  17.03   2.32  10.15   0.54  1.07   4.4   8.2  16.3   6.9  32.0  27.4  0.00  0.00  0.00
 1981 305   670   383 13514  31.54   3.15  19.59   3.58   9.78   0.00  0.36   4.2   8.0  16.1   7.0  30.8  26.9  0.00  0.00  0.00
 1981 306   671   384 13537  22.26   2.76  13.82   2.14   8.21   0.00  0.25   4.1   7.7  16.0   6.9  27.7  24.8  0.00  0.00  0.00
 1981 307   672   385 13596  29.53   2.74  16.68   4.29   8.69   0.00  0.64   4.0   7.5  16.0   6.9  27.8  25.1  0.00  0.00  0.00
 1981 308   673   386 13681  28.19   0.00  14.25   1.90   7.78   0.86  1.28   4.1   7.8  16.3   7.0  25.9  23.5  0.00  0.00  0.00
 1981 309   674   387 13733  22.58   1.02  13.14   1.76   6.86   0.00  0.26   4.0   7.7  16.3   7.1  23.8  22.1  0.00  0.00  0.00
 1981 310   675   388 13783  21.65   0.82  12.46   1.67   6.63   0.00  0.25   4.0   7.6  16.3   7.1  23.6  21.6  0.00  0.00  0.00
 1981 311   676   389 13875  24.28   0.00  12.07   1.64   5.94   1.26  1.36   4.2   8.0  16.6   7.2  23.0  19.9  0.00  0.00  0.00
 1981 312   677   390 13955  24.95   0.00  13.85   2.05   6.68   0.12  0.09   4.2   8.1  16.6   7.4  25.8  21.1  0.00  0.00  0.00
 1981 313   678   391 14042  28.41   0.00  14.59   1.96   7.94   1.42  1.05   4.3   8.5  16.8   7.4  27.4  23.3  0.00  0.00  0.00
 1981 314   679   392 14109  28.80   2.79  18.48   4.09   8.44   0.00  0.00   4.2   8.3  16.7   7.2  28.4  24.1  0.00  0.00  0.00
 1981 315   680   393 12650  28.10   2.46  15.73   3.66   7.73   0.00  0.00   4.1   8.1  16.5   7.2  26.2  22.9  0.00  0.00  0.00
 1981 316   681   394 12642  16.75   3.66   9.49   2.38   7.56   0.00  0.00   4.0   7.9  16.1   7.1  26.8  23.3  0.00  0.00  0.00
 1981 317   682   395 12649  19.16   3.67  11.22   3.16   7.20   0.00  0.05   3.9   7.6  15.7   6.9  27.4  23.9  0.00  0.00  0.00
 1981 318   683   396 12667  20.75   3.45  12.23   3.51   7.19   0.00  0.09   3.8   7.4  15.4   6.8  27.3  23.8  0.00  0.00  0.00
 1981 319   684   397 12702  22.43   3.10  13.21   3.91   6.94   0.00  0.14   3.8   7.3  15.1   6.7  26.2  23.1  0.00  0.00  0.00
 1981 320   685   398 12756  23.00   2.49  13.57   4.13   6.13   0.01  0.18   3.7   7.1  14.8   6.6  24.4  21.3  0.00  0.00  0.00
 1981 321   686   399 12824  26.06   2.53  15.39   4.63   6.59   0.03  0.28   3.7   7.0  14.7   6.5  25.8  22.0  0.00  0.00  0.00
 1981 322   687   400 12871  23.06   2.43  13.70   3.83   6.54   0.03  0.22   3.6   6.8  14.5   6.4  25.5  22.1  0.00  0.00  0.00
 1981 323   688   401 12956  25.74   1.78  14.96   4.76   5.49   0.05  0.35   3.6   6.7  14.4   6.3  21.8  19.6  0.00  0.00  0.00
 1981 324   689   402 13043  25.81   1.69  15.19   4.58   5.58   0.07  0.38   3.6   6.7  14.4   6.3  24.1  19.5  0.00  0.00  0.00
 1981 325   690   403 13150  33.96   2.30  19.65   5.74   7.60   0.16  0.80   3.6   6.6  14.4   6.3  28.4  22.9  0.00  0.00  0.00
 1981 326   691   404 13268  35.45   2.18  20.40   6.00   7.57   0.20  0.91   3.5   6.5  14.4   6.2  27.0  22.8  0.00  0.00  0.00
 1981 327   692   405 13382  34.36   2.00  19.76   5.68   7.28   0.24  0.96   3.5   6.5  14.5   6.2  25.4  22.4  0.00  0.00  0.00
 1981 328   693   406 13519  38.17   1.92  21.74   6.41   7.47   0.32  1.17   3.5   6.4  14.7   6.3  25.3  22.4  0.00  0.00  0.00
 1981 329   694   407 13659  35.16   1.46  19.89   6.01   6.23   0.35  1.16   3.5   6.5  14.8   6.3  23.6  19.9  0.00  0.00  0.00
 1981 330   695   408 13806  36.46   1.47  20.69   6.10   6.42   0.42  1.25   3.5   6.5  15.0   6.4  24.2  20.1  0.00  0.00  0.00
 1981 331   696   409 13959  38.33   1.55  21.71   6.31   6.77   0.49  1.35   3.6   6.6  15.3   6.5  24.7  20.5  0.00  0.00  0.00
 1981 332   697   410 14041  29.11   1.74  17.20   4.08   6.99   0.32  0.78   3.5   6.6  15.4   6.5  23.9  21.6  0.00  0.00  0.00
 1981 333   698   411 14189  39.44   1.70  21.83   6.52   7.25   0.59  1.30   3.6   6.6  15.6   6.6  24.6  21.3  0.00  0.00  0.00
 1981 334   699   412 14315  38.67   2.05  22.44   5.60   8.29   0.60  1.16   3.6   6.7  15.7   6.7  26.7  23.1  0.00  0.00  0.00
 1981 335   700   413 14491  45.01   1.86  25.29   7.44   7.85   0.78  1.33   3.6   6.8  15.9   6.8  25.3  21.8  0.00  0.00  0.00
 1981 336   701   414 14647  36.90   1.34  21.00   6.15   5.97   0.69  1.07   3.6   6.9  16.1   6.9  22.5  18.6  0.00  0.00  0.00
 1981 337   702   415 14805  38.71   1.56  22.36   6.20   6.64   0.75  1.02   3.7   7.0  16.3   7.1  24.5  19.5  0.00  0.00  0.00
 1981 338   703   416 14977  44.17   1.93  25.65   6.94   7.84   0.91  1.00   3.7   7.2  16.4   7.2  26.5  21.2  0.00  0.00  0.00
 1981 339   704   417 15070  36.42   2.49  22.96   4.83   8.98   0.47  0.28   3.7   7.1  16.3   7.2  26.9  23.8  0.00  0.00  0.00
 1981 340   705   418 15253  52.08   2.45  30.79   9.00   9.53   0.61  0.51   3.7   7.1  16.3   7.2  26.8  23.6  0.00  0.00  0.00
 1981 341   706   419 15436  46.98   1.99  28.54   7.77   7.98   0.69  0.67   3.7   7.2  16.4   7.2  25.3  21.1  0.00  0.00  0.00
 1981 342   707   420 15621  47.56   1.99  29.50   8.07   7.93   0.51  0.39   3.7   7.2  16.4   7.2  24.5  21.0  0.00  0.00  0.00
 1981 343   708   421 13057  50.07   2.21  31.59   7.37   8.71   0.45  0.26   3.7   7.2  16.4   7.2  26.0  21.9  0.00  0.00  0.00
 1981 344   709   422 13107  24.80   3.03  14.79   3.83   7.68   0.08  0.07   3.7   7.1  16.1   7.1  25.3  21.6  0.00  0.00  0.00
 1981 345   710   423 13181  28.23   3.12  17.41   4.79   7.12   0.10  0.24   3.7   7.0  15.8   7.0  27.0  22.5  0.00  0.00  0.00
 1981 346   711   424 13268  31.91   3.21  19.52   5.36   7.84   0.15  0.44   3.6   6.9  15.6   6.9  27.8  23.6  0.00  0.00  0.00
 1981 347   712   425 13364  35.49   3.29  21.32   5.80   8.85   0.20  0.63   3.6   6.8  15.5   6.8  29.9  25.1  0.00  0.00  0.00
 1981 348   713   426 13457  37.54   3.41  22.23   5.75  10.11   0.24  0.77   3.6   6.7  15.3   6.7  31.4  27.0  0.00  0.00  0.00
 1981 349   714   427 13557  35.86   2.75  21.01   5.69   8.60   0.28  0.87   3.6   6.6  15.3   6.7  27.6  24.5  0.00  0.00  0.00
 1981 350   715   428 13696  40.74   2.40  23.48   6.76   8.42   0.39  1.12   3.6   6.6  15.4   6.7  28.0  23.6  0.00  0.00  0.00
 1981 351   716   429 13845  44.45   2.52  25.62   6.94   9.64   0.49  1.28   3.6   6.6  15.5   6.7  30.5  25.3  0.00  0.00  0.00
 1981 352   717   430 13977  44.64   2.74  25.56   6.35  10.88   0.56  1.31   3.6   6.7  15.6   6.7  31.6  27.2  0.00  0.00  0.00
 1981 353   718   431 14082  39.11   2.52  22.44   5.36   9.63   0.58  1.19   3.6   6.7  15.7   6.7  28.1  25.6  0.00  0.00  0.00
 1981 354   719   432 14201  45.21   2.84  25.45   6.14  11.58   0.70  1.23   3.6   6.7  15.9   6.8  31.8  28.1  0.00  0.00  0.00
 1981 355   720   433 14331  40.47   2.21  22.97   6.04   8.62   0.69  1.12   3.6   6.8  16.0   6.9  26.3  23.6  0.00  0.00  0.00
 1981 356   721   434 14433  31.08   1.64  18.06   4.54   6.50   0.50  0.76   3.6   6.9  16.1   6.9  22.8  20.2  0.00  0.00  0.00
 1981 357   722   435 14603  41.45   1.70  23.92   6.51   6.98   0.79  1.10   3.7   7.0  16.2   7.0  23.3  20.4  0.00  0.00  0.00
 1981 358   723   436 14813  45.57   0.00  25.80   3.37   8.36   2.15  1.96   3.9   7.7  16.6   7.3  27.0  22.3  0.00  0.00  0.00
 1981 359   724   437 15024  47.55   0.00  30.91   4.09   8.82   0.70  0.51   4.0   7.9  16.7   7.4  26.7  22.9  0.00  0.00  0.00
 1981 360   725   438 15217  49.79   2.37  34.77   4.80  10.29   0.00  0.00   3.9   7.7  16.6   7.3  29.0  24.9  0.00  0.00  0.00
 1981 361   726   439 15394  49.07   1.90  33.07   4.33  10.97   0.00  0.00   3.9   7.6  16.6   7.2  29.3  25.9  0.00  0.00  0.00
 1981 362   727   440 15577  50.22   3.06  34.78   4.83  11.15   0.00  0.00   3.8   7.4  16.4   7.2  29.6  25.9  0.00  0.00  0.00
 1981 363   728   441 15755  50.53   2.25  33.29   4.51  11.71   0.00  0.00   3.7   7.2  16.3   7.2  30.7  26.5  0.00  0.00  0.00
 1981 364   729   442 15946  50.59   3.08  34.92   5.16  11.74   0.18  0.28   3.7   7.1  16.3   7.2  30.8  26.3  0.00  0.00  0.00
 1981 365   730   443 16008  30.30   2.61  18.92   3.17   9.10   0.50  0.54   3.6   7.1  16.3   7.1  26.3  23.6  0.00  0.00  0.00
 1982 001   731   444 16186  37.70   0.00  20.68   2.90   6.82   2.06  1.76   3.9   7.7  16.6   7.3  22.0  19.2  0.00  0.00  0.00
 1982 002   732   445 16345  37.05   0.00  23.78   3.48   7.27   0.09  0.06   3.9   7.7  16.7   7.4  24.2  19.8  0.00  0.00  0.00
 1982 003   733   446 16507  38.82   0.00  24.45   3.51   7.90   0.55  0.36   4.0   7.9  16.8   7.4  25.3  20.6  0.00  0.00  0.00
 1982 004   734   447 16677  41.09   0.00  24.56   3.28   8.62   1.50  0.97   4.1   8.3  17.0   7.4  26.2  21.6  0.00  0.00  0.00
 1982 005   735   448 16847  46.19   3.10  32.73   5.98  10.66   0.00  0.00   4.0   8.0  16.8   7.2  29.0  24.3  0.00  0.00  0.00
 1982 006   736   449 14542  46.35   3.15  27.25   6.28  10.96   0.00  0.00   3.9   7.8  16.7   7.2  28.6  24.7  0.00  0.00  0.00
 1982 007   737   450 14521  16.54   3.76   9.53   1.83   8.68   0.00  0.00   3.8   7.6  16.4   7.0  25.3  23.0  0.00  0.00  0.00
 1982 008   738   451 14525  18.66   3.39  10.79   2.86   7.27   0.00  0.03   3.8   7.5  16.0   6.9  24.4  22.4  0.00  0.00  0.00
 1982 009   739   452 14553  25.43   3.82  14.92   4.02   8.71   0.00  0.15   3.7   7.3  15.7   6.8  28.0  24.5  0.00  0.00  0.00
 1982 010   740   453 14607  30.47   3.78  17.69   4.95   9.35   0.02  0.34   3.7   7.1  15.4   6.7  28.8  25.2  0.00  0.00  0.00
 1982 011   741   454 14680  30.14   2.97  17.53   5.03   8.04   0.06  0.40   3.6   6.9  15.3   6.6  26.3  22.9  0.00  0.00  0.00
 1982 012   742   455 14765  29.34   2.40  17.07   4.94   7.15   0.08  0.43   3.6   6.8  15.2   6.6  25.3  21.1  0.00  0.00  0.00
 1982 013   743   456 14863  32.87   2.51  19.00   5.40   7.82   0.14  0.63   3.6   6.8  15.1   6.5  26.3  22.1  0.00  0.00  0.00
 1982 014   744   457 14975  37.90   2.78  21.77   6.04   9.09   0.20  0.80   3.6   6.7  15.1   6.5  28.0  23.9  0.00  0.00  0.00
 1982 015   745   458 15129  40.10   2.72  26.47   5.02   9.54   0.27  0.93   3.6   6.6  15.1   6.5  29.2  24.3  0.00  0.00  0.00
 1982 016   746   459 15281  41.93   0.00  22.31   3.01  10.25   1.44  1.98   3.8   7.1  15.6   6.6  30.3  25.2  0.00  0.00  0.00
 1982 017   747   460 15325  27.95   2.81  18.07   2.31   9.43   0.07  0.50   3.7   7.0  15.5   6.6  28.6  24.8  0.00  0.00  0.00
 1982 018   748   461 15461  40.68   0.00  22.02   2.89   9.72   1.07  1.74   3.8   7.3  15.9   6.8  28.2  24.4  0.00  0.00  0.00
 1982 019   749   462 15580  38.17   0.00  20.15   2.65   9.08   1.07  1.85   4.0   7.7  16.3   6.9  27.7  23.3  0.00  0.00  0.00
 1982 020   750   463 15683  41.21   0.00  22.05   2.89  10.93   0.47  0.91   4.0   7.9  16.5   7.2  30.9  25.9  0.00  0.00  0.00
 1982 021   751   464 15728  36.97   1.07  21.84   2.85  11.52   0.00  0.00   4.0   7.8  16.4   7.2  31.2  27.1  0.00  0.00  0.00
 1982 022   752   465 15802  34.97   2.60  23.04   3.77   8.65   0.00  0.10   3.9   7.6  16.3   7.1  25.7  22.7  0.00  0.00  0.00
 1982 023   753   466 15866  30.03   0.00  14.09   1.85   7.38   1.90  2.12   4.2   8.2  16.8   7.2  25.4  20.6  0.00  0.00  0.00
 1982 024   754   467 15919  34.53   0.00  18.19   2.40   9.12   1.58  1.25   4.4   8.8  17.0   7.2  28.6  23.2  0.00  0.00  0.00
 1982 025   755   468 15955  35.88   0.00  19.13   2.54   9.90   1.40  1.10   4.5   9.2  17.3   7.2  29.7  24.3  0.00  0.00  0.00
 1982 026   756   469 15975  36.28   0.00  18.92   2.50  10.47   1.41  1.10   4.7   9.6  17.5   7.1  30.8  25.1  0.00  0.00  0.00
 1982 027   757   470 15970  37.52   0.00  19.85   2.62  12.04   0.68  0.52   4.8   9.9  17.6   7.1  32.7  27.4  0.00  0.00  0.00
 1982 028   758   471 15900  34.52   2.58  19.08   2.49  13.95   0.00  0.00   4.7   9.6  17.5   6.9  35.5  30.4  0.00  0.00  0.00
 1982 029   759   472 15807  27.70   3.81  16.07   2.92  11.24   0.00  0.00   4.5   9.3  17.3   6.8  30.7  27.2  0.00  0.00  0.00
 1982 030   760   473 15753  30.58   1.10  15.79   2.04  11.25   0.00  0.00   4.5   9.2  17.2   6.9  30.6  27.1  0.00  0.00  0.00
 1982 031   761   474 15681  28.38   3.77  16.93   2.45  11.64   0.00  0.00   4.3   8.9  17.0   6.7  31.6  27.9  0.00  0.00  0.00
 1982 032   762   475 15609  27.15   3.54  15.96   2.12  10.80   0.00  0.00   4.2   8.6  16.8   6.6  29.5  26.8  0.00  0.00  0.00
 1982 033   763   476 15563  29.29   3.58  16.80   2.73  11.84   0.00  0.00   4.0   8.3  16.7   6.6  31.8  28.3  0.00  0.00  0.00
 1982 034   764   477 14224  19.98   2.76  10.21   2.08   8.82   0.00  0.00   3.9   8.1  16.5   6.4  26.4  24.2  0.00  0.00  0.00
 1982 035   765   478 14166  15.45   3.39   8.21   1.95   7.72   0.00  0.00   3.8   7.9  16.1   6.3  24.8  22.6  0.00  0.00  0.00
 1982 036   766   479 14134  17.28   2.98   9.74   2.59   6.77   0.00  0.01   3.8   7.7  15.8   6.2  25.3  21.7  0.00  0.00  0.00
 1982 037   767   480 14110  20.53   3.25  11.68   3.18   7.67   0.00  0.04   3.7   7.5  15.5   6.0  27.6  23.2  0.00  0.00  0.00
 1982 038   768   481 14095  25.76   3.69  14.26   3.96   9.64   0.00  0.11   3.6   7.3  15.1   5.9  31.6  26.3  0.00  0.00  0.00
 1982 039   769   482 14057  23.57   3.76  13.12   3.27   9.91   0.01  0.11   3.6   7.1  14.8   5.7  30.6  27.2  0.00  0.00  0.00
 1982 040   770   483 14003  17.13   2.94   9.51   2.15   7.98   0.01  0.05   3.5   6.9  14.5   5.6  26.0  24.3  0.00  0.00  0.00
 1982 041   771   484 13982  26.22   3.30  14.02   3.89   9.87   0.03  0.21   3.4   6.7  14.2   5.5  29.8  27.0  0.00  0.00  0.00
 1982 042   772   485 13972  26.26   2.91  14.44   3.75   9.32   0.05  0.25   3.4   6.5  14.0   5.4  28.9  26.1  0.00  0.00  0.00
 1982 043   773   486 14004  31.49   2.69  17.03   4.75   9.47   0.12  0.51   3.4   6.4  13.9   5.3  29.0  25.9  0.00  0.00  0.00
 1982 044   774   487 14033  32.64   2.73  17.42   4.44  10.61   0.16  0.62   3.3   6.2  13.9   5.3  31.5  27.7  0.00  0.00  0.00
 1982 045   775   488 14089  31.25   2.02  16.89   4.76   8.12   0.19  0.67   3.3   6.1  13.9   5.3  25.8  23.5  0.00  0.00  0.00
 1982 046   776   489 14146  30.69   2.01  16.76   4.31   8.42   0.21  0.67   3.3   6.1  14.0   5.3  27.7  24.0  0.00  0.00  0.00
 1982 047   777   490 14217  37.01   2.36  19.67   4.92  10.43   0.32  0.95   3.3   6.0  14.1   5.4  30.2  26.9  0.00  0.00  0.00
 1982 048   778   491 14306  35.38   2.20  20.94   3.83   9.80   0.35  0.95   3.3   6.0  14.2   5.4  28.7  26.0  0.00  0.00  0.00
 1982 049   779   492 14326  24.00   1.79  12.96   2.97   7.87   0.15  0.37   3.3   5.9  14.2   5.4  24.9  23.4  0.00  0.00  0.00
 1982 050   780   493 14416  32.35   1.49  18.46   2.66   8.59   0.38  0.90   3.3   5.9  14.4   5.5  26.8  24.0  0.00  0.00  0.00
 1982 051   781   494 14500  32.58   1.67  18.71   2.48   9.09   0.38  0.84   3.3   5.9  14.5   5.6  27.8  24.7  0.00  0.00  0.00
 1982 052   782   495 14545  29.97   2.34  17.61   2.73  10.24   0.29  0.60   3.3   5.9  14.6   5.6  29.4  26.9  0.00  0.00  0.00
 1982 053   783   496 14663  33.79   0.00  18.08   2.43   8.08   0.88  1.18   3.4   6.2  14.9   5.8  25.5  22.8  0.00  0.00  0.00
 1982 054   784   497 14781  32.77   0.00  17.32   2.33   7.74   1.06  1.28   3.6   6.6  15.2   6.0  25.1  22.1  0.00  0.00  0.00
 1982 055   785   498 14888  30.25   0.06  17.05   2.50   7.13   0.25  0.63   3.6   6.6  15.3   6.1  24.7  21.0  0.00  0.00  0.00
 1982 056   786   499 14993  32.12   0.00  16.94   2.28   8.17   0.75  1.04   3.7   6.9  15.6   6.3  27.0  22.6  0.00  0.00  0.00
 1982 057   787   500 15085  33.39   1.95  19.24   2.76   9.07   0.23  0.73   3.6   6.8  15.7   6.4  28.4  24.0  0.00  0.00  0.00
 1982 058   788   501 15175  34.81   2.66  21.05   3.25  10.38   0.30  0.70   3.6   6.8  15.7   6.5  30.1  26.0  0.00  0.00  0.00
 1982 059   789   502 15245  32.99   2.74  19.64   3.17  10.59   0.34  0.60   3.5   6.7  15.8   6.5  30.3  26.4  0.00  0.00  0.00
 1982 060   790   503 15313  32.59   1.71  18.01   2.41  10.03   0.40  0.57   3.5   6.7  15.8   6.5  28.5  25.6  0.00  0.00  0.00
 1982 061   791   504 15377  29.14   1.98  16.84   2.40   8.67   0.32  0.43   3.5   6.7  15.8   6.6  26.1  23.5  0.00  0.00  0.00
 1982 062   792   505 14070  29.64   2.19  14.83   3.65   8.40   0.36  0.45   3.5   6.6  15.9   6.5  26.4  22.9  0.00  0.00  0.00
 1982 063   793   506 14061  16.88   2.87   9.19   2.09   7.53   0.02  0.02   3.4   6.5  15.6   6.4  26.3  22.1  0.00  0.00  0.00
 1982 064   794   507 14043  15.23   2.84   8.48   1.97   6.96   0.01  0.02   3.4   6.3  15.3   6.3  25.2  22.4  0.00  0.00  0.00
 1982 065   795   508 14049  20.16   2.92  11.13   3.01   7.63   0.04  0.07   3.4   6.2  15.0   6.2  27.6  23.2  0.00  0.00  0.00
 1982 066   796   509 14061  23.04   3.11  12.88   3.41   8.47   0.06  0.12   3.3   6.1  14.7   6.1  28.8  24.6  0.00  0.00  0.00
 1982 067   797   510 14080  24.63   3.03  13.73   3.66   8.70   0.07  0.16   3.3   5.9  14.5   5.9  28.7  25.0  0.00  0.00  0.00
 1982 068   798   511 14102  26.25   3.03  14.55   3.82   9.22   0.10  0.22   3.3   5.8  14.3   5.8  29.3  25.8  0.00  0.00  0.00
 1982 069   799   512 14130  27.99   2.96  15.27   3.98   9.77   0.13  0.29   3.3   5.7  14.1   5.7  30.4  26.5  0.00  0.00  0.00
 1982 070   800   513 14166  27.62   2.61  15.19   4.01   8.93   0.15  0.34   3.3   5.6  14.0   5.7  28.6  25.1  0.00  0.00  0.00
 1982 071   801   514 14210  28.62   2.48  15.68   4.10   9.00   0.19  0.42   3.2   5.5  14.0   5.6  28.7  25.1  0.00  0.00  0.00
 1982 072   802   515 14260  28.55   2.23  15.62   4.11   8.54   0.21  0.47   3.2   5.5  13.9   5.6  27.6  24.2  0.00  0.00  0.00
 1982 073   803   516 14300  26.84   2.13  14.72   3.67   8.44   0.19  0.43   3.2   5.4  13.9   5.5  27.7  24.1  0.00  0.00  0.00
 1982 074   804   517 14348  28.31   2.08  15.32   3.88   8.59   0.25  0.53   3.2   5.4  13.9   5.5  27.4  24.3  0.00  0.00  0.00
 1982 075   805   518 14412  31.47   2.09  16.81   4.28   9.03   0.36  0.75   3.2   5.4  14.0   5.5  28.0  24.8  0.00  0.00  0.00
 1982 076   806   519 14477  32.16   2.09  17.09   4.16   9.37   0.40  0.80   3.2   5.4  14.1   5.5  29.4  25.2  0.00  0.00  0.00
 1982 077   807   520 14543  31.82   2.01  16.98   4.06   9.02   0.41  0.80   3.2   5.5  14.3   5.5  27.9  24.6  0.00  0.00  0.00
 1982 078   808   521 14624  31.58   1.89  18.01   3.58   8.65   0.43  0.79   3.2   5.5  14.4   5.6  27.5  23.9  0.00  0.00  0.00
 1982 079   809   522 14715  31.73   1.86  18.77   3.46   8.61   0.45  0.80   3.3   5.5  14.5   5.6  27.8  23.7  0.00  0.00  0.00
 1982 080   810   523 14775  30.63   1.92  16.28   3.93   8.74   0.40  0.68   3.3   5.6  14.6   5.6  27.4  24.0  0.00  0.00  0.00
 1982 081   811   524 14858  32.19   1.08  18.09   2.39   9.10   0.45  0.73   3.3   5.7  14.8   5.7  27.9  24.4  0.00  0.00  0.00
 1982 082   812   525 14934  32.14   2.12  18.91   3.37   9.41   0.43  0.68   3.3   5.7  14.9   5.7  28.6  24.9  0.00  0.00  0.00
 1982 083   813   526 15011  32.90   2.23  19.47   2.71   9.93   0.46  0.69   3.3   5.7  14.9   5.8  29.5  25.6  0.00  0.00  0.00
 1982 084   814   527 15080  33.15   2.38  19.47   3.17  10.51   0.48  0.68   3.3   5.7  15.0   5.8  30.1  26.5  0.00  0.00  0.00
 1982 085   815   528 15134  31.02   2.43  18.64   2.59  10.66   0.40  0.54   3.2   5.7  15.0   5.8  30.5  26.8  0.00  0.00  0.00
 1982 086   816   529 15135  21.07   1.88  11.00   2.49   7.97   0.14  0.18   3.2   5.6  15.0   5.7  25.9  22.9  0.00  0.00  0.00
 1982 087   817   530 15196  19.01   0.00  10.84   1.49   4.94   0.19  0.20   3.2   5.7  15.1   5.8  20.5  17.0  0.00  0.00  0.00
 1982 088   818   531 15261  22.27   1.26  13.77   2.06   6.08   0.18  0.24   3.2   5.7  15.1   5.7  23.6  19.0  0.00  0.00  0.00
 1982 089   819   532 15327  24.84   0.60  14.24   1.91   6.96   0.25  0.31   3.3   5.7  15.1   5.8  24.9  20.6  0.00  0.00  0.00
 1982 090   820   533 14011  27.24   1.85  13.94   3.17   8.13   0.31  0.39   3.2   5.7  15.2   5.8  26.7  22.5  0.00  0.00  0.00
 1982 091   821   534 13998  17.35   2.79   9.39   1.92   8.13   0.02  0.03   3.2   5.6  14.9   5.7  27.2  23.2  0.00  0.00  0.00
 1982 092   822   535 13993  18.30   2.71  10.10   2.37   7.57   0.03  0.05   3.2   5.5  14.6   5.6  27.1  23.4  0.00  0.00  0.00
 1982 093   823   536 13970  14.39   2.48   7.95   1.56   7.11   0.01  0.02   3.2   5.4  14.4   5.5  25.4  22.9  0.00  0.00  0.00
 1982 094   824   537 13953  15.48   2.33   8.28   1.88   7.09   0.02  0.04   3.1   5.3  14.2   5.4  25.7  22.7  0.00  0.00  0.00
 1982 095   825   538 13957  20.33   2.46  10.97   2.75   7.93   0.06  0.12   3.1   5.2  14.0   5.3  27.5  24.0  0.00  0.00  0.00
 1982 096   826   539 13970  20.28   2.16  11.10   2.77   7.41   0.07  0.14   3.1   5.1  13.8   5.2  27.0  22.9  0.00  0.00  0.00
 1982 097   827   540 13983  19.13   1.92  10.50   2.57   6.92   0.06  0.13   3.1   5.0  13.7   5.2  25.4  22.1  0.00  0.00  0.00
 1982 098   828   541 14008  19.00   1.60  10.42   2.71   6.25   0.07  0.14   3.1   4.9  13.6   5.1  24.5  20.6  0.00  0.00  0.00
 1982 099   829   542 14035  20.04   1.64  11.02   2.76   6.58   0.09  0.18   3.1   4.9  13.6   5.1  25.3  21.2  0.00  0.00  0.00
 1982 100   830   543 14064  20.24   1.56  11.08   2.79   6.55   0.10  0.20   3.1   4.9  13.5   5.0  25.4  21.1  0.00  0.00  0.00
 1982 101   831   544 14093  22.07   1.72  11.99   2.92   7.30   0.13  0.27   3.1   4.8  13.5   5.0  27.1  22.4  0.00  0.00  0.00
 1982 102   832   545 14120  23.89   1.87  12.74   3.01   8.19   0.17  0.36   3.1   4.8  13.4   4.9  28.9  23.9  0.00  0.00  0.00
 1982 103   833   546 14140  24.79   1.99  12.99   2.93   9.02   0.20  0.41   3.1   4.7  13.4   4.9  30.0  25.4  0.00  0.00  0.00
 1982 104   834   547 14144  14.94   1.20   8.05   1.77   5.73   0.04  0.08   3.1   4.7  13.4   4.9  21.9  19.8  0.00  0.00  0.00
 1982 105   835   548 14185  18.35   0.95   9.81   2.73   5.15   0.10  0.20   3.1   4.7  13.4   4.9  21.4  18.2  0.00  0.00  0.00
 1982 106   836   549 14200   9.75   0.48   5.17   1.25   3.44   0.00  0.00   3.1   4.7  13.4   4.8  18.3  14.3  0.00  0.00  0.00
 1982 107   837   550 14234  15.86   0.79   8.63   2.23   4.67   0.06  0.12   3.1   4.6  13.4   4.8  21.0  17.1  0.00  0.00  0.00
 1982 108   838   551 14273  19.66   1.08  10.75   2.52   5.86   0.13  0.26   3.1   4.6  13.4   4.8  23.9  19.5  0.00  0.00  0.00
 1982 109   839   552 14314  23.51   1.39  12.62   2.86   7.19   0.23  0.45   3.1   4.6  13.5   4.8  25.9  22.0  0.00  0.00  0.00
 1982 110   840   553 14332  20.29   1.40  11.12   2.04   7.17   0.15  0.29   3.1   4.6  13.5   4.8  25.2  22.2  0.00  0.00  0.00
 1982 111   841   554 14394  21.07   1.02  12.89   2.29   5.77   0.19  0.36   3.1   4.6  13.5   4.8  21.4  19.3  0.00  0.00  0.00
 1982 112   842   555 14450  20.14   0.98  12.10   2.22   5.66   0.17  0.32   3.1   4.6  13.6   4.8  22.4  19.0  0.00  0.00  0.00
 1982 113   843   556 14491  20.90   1.08  11.08   2.78   6.10   0.19  0.35   3.1   4.7  13.6   4.8  23.6  19.8  0.00  0.00  0.00
 1982 114   844   557 14540  22.39   1.24  13.04   2.28   6.82   0.23  0.42   3.1   4.7  13.7   4.8  25.0  21.1  0.00  0.00  0.00
 1982 115   845   558 14589  23.43   1.35  13.63   1.80   7.29   0.26  0.46   3.1   4.7  13.8   4.8  25.7  21.9  0.00  0.00  0.00
 1982 116   846   559 14631  20.70   1.25  12.53   1.87   6.71   0.18  0.31   3.1   4.7  13.8   4.8  23.9  21.0  0.00  0.00  0.00
 1982 117   847   560 14642  15.51   1.13   9.30   1.22   6.05   0.06  0.10   3.1   4.6  13.8   4.8  21.7  20.1  0.00  0.00  0.00
 1982 118   848   561 14663  19.44   1.25  10.67   2.10   6.69   0.15  0.25   3.1   4.6  13.8   4.8  23.6  21.1  0.00  0.00  0.00
 1982 119   849   562 14706  21.42   1.10  12.29   1.62   6.70   0.21  0.35   3.0   4.6  13.8   4.8  24.3  20.9  0.00  0.00  0.00
 1982 120   850   563 14740  20.25   1.19  11.47   2.17   6.58   0.17  0.28   3.0   4.6  13.9   4.8  24.9  20.6  0.00  0.00  0.00
 1982 121   851   564 14776  21.49   1.32  12.38   1.63   7.13   0.21  0.33   3.0   4.6  13.9   4.8  25.7  21.6  0.00  0.00  0.00
 1982 122   852   565 14815  17.52   0.96  10.78   1.64   5.56   0.11  0.18   3.0   4.6  13.9   4.8  21.5  18.7  0.00  0.00  0.00
 1982 123   853   566 14847  13.09   0.12   7.29   0.98   4.19   0.03  0.05   3.0   4.6  13.9   4.8  19.5  15.7  0.00  0.00  0.00
 1982 124   854   567 14880  14.43   0.75   8.76   1.38   4.78   0.05  0.08   3.0   4.6  13.9   4.8  21.0  17.0  0.00  0.00  0.00
 1982 125   855   568 14915  16.70   0.48   9.45   1.26   5.31   0.09  0.15   3.0   4.6  13.9   4.8  21.6  18.1  0.00  0.00  0.00
 1982 126   856   569 14949  18.97   1.18  11.40   1.70   6.46   0.14  0.22   3.0   4.6  13.9   4.8  23.8  20.3  0.00  0.00  0.00
 1982 127   857   570 14976  17.84   1.12  10.48   1.38   6.26   0.11  0.17   3.0   4.6  13.9   4.8  24.2  19.9  0.00  0.00  0.00
 1982 128   858   571 14975  14.14   1.09   7.85   1.22   5.98   0.04  0.06   3.0   4.5  13.9   4.7  22.2  19.7  0.00  0.00  0.00
 1982 129   859   572 14977  17.91   1.29   9.05   2.07   6.91   0.12  0.17   2.9   4.5  13.9   4.7  23.9  21.3  0.00  0.00  0.00
 1982 130   860   573 15002  17.66   1.11  10.34   1.38   6.24   0.12  0.17   2.9   4.5  13.9   4.7  23.1  19.9  0.00  0.00  0.00
 1982 131   861   574 15026  17.36   1.12  10.43   1.39   6.31   0.11  0.16   2.9   4.5  13.9   4.7  23.4  20.1  0.00  0.00  0.00
 1982 132   862   575 15033  18.30   1.24   9.06   2.15   6.84   0.13  0.19   2.9   4.5  13.9   4.6  24.8  21.0  0.00  0.00  0.00
 1982 133   863   576 15043  20.26   1.52  11.56   1.51   8.16   0.18  0.25   2.9   4.4  13.9   4.6  27.0  23.4  0.00  0.00  0.00
 1982 134   864   577 15035  11.95   0.88   5.84   1.20   5.25   0.01  0.02   2.9   4.4  13.8   4.6  20.3  18.2  0.00  0.00  0.00
 1982 135   865   578 15055  10.47   0.49   6.14   0.85   3.91   0.00  0.00   2.8   4.4  13.8   4.6  18.6  15.0  0.00  0.00  0.00
 1982 136   866   579 15062  11.53   0.75   6.56   0.88   4.88   0.01  0.01   2.8   4.4  13.8   4.5  21.0  17.2  0.00  0.00  0.00
 1982 137   867   580 15063  19.69   1.52  10.88   1.43   8.31   0.17  0.23   2.8   4.3  13.8   4.5  27.1  23.7  0.00  0.00  0.00
 1982 138   868   581 15061  12.16   0.87   6.72   0.91   5.29   0.02  0.02   2.8   4.3  13.8   4.5  20.1  18.3  0.00  0.00  0.00
 1982 139   869   582 15075  11.14   0.52   5.58   1.36   4.07   0.01  0.01   2.8   4.3  13.8   4.4  18.1  15.5  0.00  0.00  0.00
 1982 140   870   583 15087   8.70   0.37   4.60   0.63   3.47   0.00  0.00   2.8   4.3  13.8   4.4  17.2  14.0  0.00  0.00  0.00
 1982 141   871   584 15102   8.52   0.34   4.52   0.79   3.35   0.00  0.00   2.8   4.3  13.8   4.4  16.6  13.7  0.00  0.00  0.00
 1982 142   872   585 15090   4.60   0.32   1.75   0.22   3.01   0.00  0.00   2.8   4.2  13.7   4.4  17.0  12.8  0.00  0.00  0.00
 1982 143   873   586 15097  11.02   0.58   5.17   1.38   4.35   0.00  0.01   2.7   4.2  13.7   4.3  19.7  16.0  0.00  0.00  0.00
 1982 144   874   587 15117  13.24   0.67   7.44   1.23   4.73   0.04  0.05   2.7   4.2  13.7   4.3  20.0  16.9  0.00  0.00  0.00
 1982 145   875   588 15135  12.22   0.59   6.62   1.33   4.41   0.02  0.03   2.7   4.2  13.7   4.3  19.4  16.1  0.00  0.00  0.00
 1982 146   876   589 13661  11.79   0.15   6.41   0.87   4.06   0.02  0.02   2.7   4.2  13.7   4.3  17.8  15.4  0.00  0.00  0.00
 1982 147   877   590 13644   2.63   0.33   0.16   0.02   2.69   0.00  0.00   2.7   4.2  13.7   4.3  15.2  12.1  0.00  0.00  0.00
 1982 148   878   591 13623   0.43   0.40   0.00   0.00   2.34   0.00  0.00   2.7   4.2  13.6   4.3  16.1  11.6  0.00  0.00  0.00
 1982 149   879   592 13593   2.59   0.64   0.00   0.00   3.10   0.00  0.00   2.7   4.1  13.6   4.2  18.8  13.9  0.00  0.00  0.00
 1982 150   880   593 13569   3.74   0.67   0.96   0.12   3.29   0.00  0.00   2.7   4.1  13.5   4.2  19.0  14.5  0.00  0.00  0.00
 1982 151   881   594 13542   3.88   0.75   0.96   0.12   3.50   0.00  0.00   2.7   4.1  13.4   4.2  20.0  15.0  0.00  0.00  0.00
 1982 152   882   595 13525   5.81   0.80   2.47   0.39   3.77   0.00  0.00   2.7   4.1  13.3   4.2  19.9  15.8  0.00  0.00  0.00
 1982 153   883   596 13499   9.24   1.43   4.31   0.82   5.45   0.00  0.00   2.7   4.0  13.1   4.1  24.4  19.8  0.00  0.00  0.00
 1982 154   884   597 13481   7.78   1.07   3.66   0.65   4.51   0.00  0.00   2.7   3.9  13.0   4.1  21.1  17.8  0.00  0.00  0.00
 1982 155   885   598 13468   9.26   1.13   4.47   0.98   4.73   0.00  0.00   2.7   3.9  12.9   4.0  20.9  18.4  0.00  0.00  0.00
 1982 156   886   599 13459   8.10   0.87   3.91   0.80   4.14   0.00  0.00   2.7   3.9  12.8   4.0  19.9  16.9  0.00  0.00  0.00
 1982 157   887   600 13454   7.13   0.68   3.35   0.71   3.63   0.00  0.00   2.7   3.8  12.7   4.0  17.8  15.7  0.00  0.00  0.00
 1982 158   888   601 13448   7.38   0.70   3.48   0.73   3.75   0.00  0.00   2.7   3.8  12.7   4.0  18.5  16.0  0.00  0.00  0.00
[...]
 2016 213 13361 13074  1792   0.00   0.00   0.00   0.00   0.61   0.00  0.00   0.0   0.8   0.0   0.0  22.1  18.5  0.00  0.00  0.00
 2016 214 13362 13075  1792   0.00   0.00   0.00   0.00   0.50   0.00  0.00   0.0   0.8   0.0   0.0  19.6  16.3  0.00  0.00  0.00
 2016 215 13363 13076  1792   0.00   0.00   0.00   0.00   0.24   0.00  0.00   0.0   0.8   0.0   0.0  11.8  10.4  0.00  0.00  0.00
 2016 216 13364 13077  1792   0.00   0.00   0.00   0.00   0.21   0.00  0.00   0.0   0.8   0.0   0.0  11.8   9.4  0.00  0.00  0.00
 2016 217 13365 13078  1792   0.00   0.00   0.00   0.00   0.42   0.00  0.00   0.0   0.8   0.0   0.0  17.3  14.7  0.00  0.00  0.00
 2016 218 13366 13079  1792   0.00   0.00   0.00   0.00   0.51   0.00  0.00   0.0   0.8   0.0   0.0  19.1  16.7  0.00  0.00  0.00
 2016 219 13367 13080  1792   0.00   0.00   0.00   0.00   0.35   0.00  0.00   0.0   0.8   0.0   0.0  15.0  13.1  0.00  0.00  0.00
 2016 220 13368 13081  1792   0.00   0.00   0.00   0.00   0.27   0.00  0.00   0.0   0.8   0.0   0.0  13.7  11.1  0.00  0.00  0.00
 2016 221 13369 13082  1792   0.00   0.00   0.00   0.00   0.25   0.00  0.00   0.0   0.8   0.0   0.0  13.9  10.2  0.00  0.00  0.00
 2016 222 13370 13083  1792   0.00   0.00   0.00   0.00   0.34   0.00  0.00   0.0   0.8   0.0   0.0  15.7  12.8  0.00  0.00  0.00
 2016 223 13371 13084  1792   0.00   0.00   0.00   0.00   0.25   0.00  0.00   0.0   0.8   0.0   0.0  12.1  10.6  0.00  0.00  0.00
 2016 224 13372 13085  1792   0.00   0.00   0.00   0.00   0.32   0.00  0.00   0.0   0.8   0.0   0.0  14.9  12.3  0.00  0.00  0.00
 2016 225 13373 13086  1792   0.00   0.00   0.00   0.00   0.36   0.00  0.00   0.0   0.8   0.0   0.0  16.4  13.3  0.00  0.00  0.00
 2016 226 13374 13087  1792   0.00   0.00   0.00   0.00   0.45   0.00  0.00   0.0   0.8   0.0   0.0  19.1  15.2  0.00  0.00  0.00
 2016 227 13375 13088  1792   0.00   0.00   0.00   0.00   0.43   0.00  0.00   0.0   0.8   0.0   0.0  18.1  14.9  0.00  0.00  0.00
 2016 228 13376 13089  1792   0.00   0.00   0.00   0.00   0.53   0.00  0.00   0.0   0.8   0.0   0.0  20.5  16.9  0.00  0.00  0.00
 2016 229 13377 13090  1792   0.00   0.00   0.00   0.00   0.41   0.00  0.00   0.0   0.8   0.0   0.0  17.8  14.4  0.00  0.00  0.00
 2016 230 13378 13091  1792   0.00   0.00   0.00   0.00   0.43   0.00  0.00   0.0   0.8   0.0   0.0  17.3  14.8  0.00  0.00  0.00
 2016 231 13379 13092  1792   0.00   0.00   0.00   0.00   0.36   0.00  0.00   0.0   0.8   0.0   0.0  17.0  13.0  0.00  0.00  0.00
 2016 232 13380 13093  1792   0.00   0.00   0.00   0.00   0.37   0.00  0.00   0.0   0.8   0.0   0.0  16.9  13.4  0.00  0.00  0.00
 2016 233 13381 13094  1792   0.00   0.00   0.00   0.00   0.35   0.00  0.00   0.0   0.8   0.0   0.0  14.3  13.1  0.00  0.00  0.00
 2016 234 13382 13095  1792   0.00   0.00   0.00   0.00   0.19   0.00  0.00   0.0   0.8   0.0   0.0  11.1   8.8  0.00  0.00  0.00
 2016 235 13383 13096  1792   0.00   0.00   0.00   0.00   0.29   0.00  0.00   0.0   0.8   0.0   0.0  16.1  11.1  0.00  0.00  0.00
 2016 236 13384 13097  1792   0.00   0.00   0.00   0.00   0.45   0.00  0.00   0.0   0.8   0.0   0.0  19.5  15.0  0.00  0.00  0.00
 2016 237 13385 13098  1792   0.00   0.00   0.00   0.00   0.48   0.00  0.00   0.0   0.8   0.0   0.0  20.0  15.9  0.00  0.00  0.00
 2016 238 13386 13099  1792   0.00   0.00   0.00   0.00   0.48   0.00  0.00   0.0   0.8   0.0   0.0  19.1  16.0  0.00  0.00  0.00
 2016 239 13387 13100  1792   0.00   0.00   0.00   0.00   0.56   0.00  0.00   0.0   0.8   0.0   0.0  21.9  17.4  0.00  0.00  0.00
 2016 240 13388 13101  1792   0.00   0.00   0.00   0.00   0.70   0.00  0.00   0.0   0.8   0.0   0.0  23.0  20.2  0.00  0.00  0.00
 2016 241 13389 13102  1792   0.00   0.00   0.00   0.00   0.42   0.00  0.00   0.0   0.8   0.0   0.0  16.1  14.7  0.00  0.00  0.00
 2016 242 13390 13103  1792   0.00   0.00   0.00   0.00   0.40   0.00  0.00   0.0   0.8   0.0   0.0  14.9  14.3  0.00  0.00  0.00
 2016 243 13391 13104  1792   0.00   0.00   0.00   0.00   0.42   0.00  0.00   0.0   0.8   0.0   0.0  15.4  14.8  0.00  0.00  0.00
 2016 244 13392 13105  1792   0.00   0.00   0.00   0.00   0.41   0.00  0.00   0.0   0.8   0.0   0.0  16.1  14.5  0.00  0.00  0.00
 2016 245 13393 13106  1792   0.00   0.00   0.00   0.00   0.33   0.00  0.00   0.0   0.8   0.0   0.0  15.1  12.6  0.00  0.00  0.00
 2016 246 13394 13107  1792   0.00   0.00   0.00   0.00   0.25   0.00  0.00   0.0   0.8   0.0   0.0  11.5  10.6  0.00  0.00  0.00
 2016 247 13395 13108  1792   0.00   0.00   0.00   0.00   0.26   0.00  0.00   0.0   0.8   0.0   0.0  11.7  10.8  0.00  0.00  0.00
 2016 248 13396 13109  1792   0.00   0.00   0.00   0.00   0.33   0.00  0.00   0.0   0.8   0.0   0.0  13.7  12.6  0.00  0.00  0.00
 2016 249 13397 13110  1792   0.00   0.00   0.00   0.00   0.42   0.00  0.00   0.0   0.8   0.0   0.0  16.1  14.7  0.00  0.00  0.00
 2016 250 13398 13111  1792   0.00   0.00   0.00   0.00   0.33   0.00  0.00   0.0   0.8   0.0   0.0  14.7  12.6  0.00  0.00  0.00
 2016 251 13399 13112  1792   0.00   0.00   0.00   0.00   0.35   0.00  0.00   0.0   0.8   0.0   0.0  14.9  13.1  0.00  0.00  0.00
 2016 252 13400 13113  1792   0.00   0.00   0.00   0.00   0.37   0.00  0.00   0.0   0.8   0.0   0.0  15.8  13.7  0.00  0.00  0.00
 2016 253 13401 13114  1792   0.00   0.00   0.00   0.00   0.43   0.00  0.00   0.0   0.8   0.0   0.0  18.9  14.7  0.00  0.00  0.00
 2016 254 13402 13115  1792   0.00   0.00   0.00   0.00   0.61   0.00  0.00   0.0   0.8   0.0   0.0  22.8  18.4  0.00  0.00  0.00
 2016 255 13403 13116  1792   0.00   0.00   0.00   0.00   0.41   0.00  0.00   0.0   0.8   0.0   0.0  17.2  14.5  0.00  0.00  0.00
 2016 256 13404 13117  1792   0.00   0.00   0.00   0.00   0.51   0.00  0.00   0.0   0.8   0.0   0.0  18.9  16.7  0.00  0.00  0.00
 2016 257 13405 13118  1792   0.00   0.00   0.00   0.00   0.49   0.00  0.00   0.0   0.8   0.0   0.0  18.1  16.3  0.00  0.00  0.00
 2016 258 13406 13119  1792   0.00   0.00   0.00   0.00   0.35   0.00  0.00   0.0   0.8   0.0   0.0  14.8  13.2  0.00  0.00  0.00
 2016 259 13407 13120  1792   0.00   0.00   0.00   0.00   0.30   0.00  0.00   0.0   0.8   0.0   0.0  13.8  11.9  0.00  0.00  0.00
 2016 260 13408 13121  1792   0.00   0.00   0.00   0.00   0.33   0.00  0.00   0.0   0.8   0.0   0.0  16.6  12.2  0.00  0.00  0.00
 2016 261 13409 13122  1792   0.00   0.00   0.00   0.00   0.41   0.00  0.00   0.0   0.8   0.0   0.0  17.0  14.4  0.00  0.00  0.00
 2016 262 13410 13123  1792   0.00   0.00   0.00   0.00   0.44   0.00  0.00   0.0   0.8   0.0   0.0  17.5  15.2  0.00  0.00  0.00
 2016 263 13411 13124  1792   0.00   0.00   0.00   0.00   0.32   0.00  0.00   0.0   0.8   0.0   0.0  14.7  12.4  0.00  0.00  0.00
 2016 264 13412 13125  1792   0.00   0.00   0.00   0.00   0.45   0.00  0.00   0.0   0.8   0.0   0.0  17.8  15.4  0.00  0.00  0.00
 2016 265 13413 13126  1792   0.00   0.00   0.00   0.00   0.51   0.00  0.00   0.0   0.8   0.0   0.0  19.6  16.6  0.00  0.00  0.00
 2016 266 13414 13127  1792   0.00   0.00   0.00   0.00   0.62   0.00  0.00   0.0   0.8   0.0   0.0  22.4  18.8  0.00  0.00  0.00
 2016 267 13415 13128  1792   0.00   0.00   0.00   0.00   0.42   0.00  0.00   0.0   0.8   0.0   0.0  17.3  14.6  0.00  0.00  0.00
 2016 268 13416 13129  1792   0.00   0.00   0.00   0.00   0.26   0.00  0.00   0.0   0.8   0.0   0.0  14.0  10.6  0.00  0.00  0.00
 2016 269 13417 13130  1792   0.00   0.00   0.00   0.00   0.30   0.00  0.00   0.0   0.8   0.0   0.0  14.2  11.8  0.00  0.00  0.00
 2016 270 13418 13131  1792   0.00   0.00   0.00   0.00   0.30   0.00  0.00   0.0   0.8   0.0   0.0  15.0  11.8  0.00  0.00  0.00
 2016 271 13419 13132  1792   0.00   0.00   0.00   0.00   0.37   0.00  0.00   0.0   0.8   0.0   0.0  17.9  13.1  0.00  0.00  0.00
 2016 272 13420 13133  1792   0.00   0.00   0.00   0.00   0.46   0.00  0.00   0.0   0.8   0.0   0.0  19.4  15.4  0.00  0.00  0.00
 2016 273 13421 13134  1792   0.00   0.00   0.00   0.00   0.38   0.00  0.00   0.0   0.8   0.0   0.0  15.7  13.8  0.00  0.00  0.00
 2016 274 13422 13135  1792   0.00   0.00   0.00   0.00   0.39   0.00  0.00   0.0   0.8   0.0   0.0  16.6  14.0  0.00  0.00  0.00
 2016 275 13423 13136  1792   0.00   0.00   0.00   0.00   0.48   0.00  0.00   0.0   0.8   0.0   0.0  18.7  15.9  0.00  0.00  0.00
 2016 276 13424 13137  1792   0.00   0.00   0.00   0.00   0.51   0.00  0.00   0.0   0.8   0.0   0.0  19.5  16.7  0.00  0.00  0.00
 2016 277 13425 13138  1792   0.00   0.00   0.00   0.00   0.53   0.00  0.00   0.0   0.8   0.0   0.0  19.2  17.1  0.00  0.00  0.00
 2016 278 13426 13139  1792   0.00   0.00   0.00   0.00   0.50   0.00  0.00   0.0   0.8   0.0   0.0  18.3  16.4  0.00  0.00  0.00
 2016 279 13427 13140  1792   0.00   0.00   0.00   0.00   0.52   0.00  0.00   0.0   0.8   0.0   0.0  18.8  16.8  0.00  0.00  0.00
 2016 280 13428 13141  1792   0.00   0.00   0.00   0.00   0.51   0.00  0.00   0.0   0.8   0.0   0.0  19.3  16.7  0.00  0.00  0.00
 2016 281 13429 13142  1792   0.00   0.00   0.00   0.00   0.54   0.00  0.00   0.0   0.8   0.0   0.0  20.2  17.1  0.00  0.00  0.00
 2016 282 13430 13143  1792   0.00   0.00   0.00   0.00   0.41   0.00  0.00   0.0   0.8   0.0   0.0  17.3  14.5  0.00  0.00  0.00
 2016 283 13431 13144  1792   0.00   0.00   0.00   0.00   0.36   0.00  0.00   0.0   0.8   0.0   0.0  17.8  12.8  0.00  0.00  0.00
 2016 284 13432 13145  1792   0.00   0.00   0.00   0.00   0.49   0.00  0.00   0.0   0.8   0.0   0.0  20.6  15.9  0.00  0.00  0.00
 2016 285 13433 13146  1792   0.00   0.00   0.00   0.00   0.58   0.00  0.00   0.0   0.8   0.0   0.0  21.1  17.9  0.00  0.00  0.00
 2016 286 13434 13147  1792   0.00   0.00   0.00   0.00   0.65   0.00  0.00   0.0   0.8   0.0   0.0  22.4  19.5  0.00  0.00  0.00
 2016 287 13435 13148  1792   0.00   0.00   0.00   0.00   0.76   0.00  0.00   0.0   0.8   0.0   0.0  25.1  21.4  0.00  0.00  0.00
 2016 288 13436 13149  1792   0.00   0.00   0.00   0.00   0.61   0.00  0.00   0.0   0.8   0.0   0.0  21.2  18.7  0.00  0.00  0.00
 2016 289 13437 13150  1792   0.00   0.00   0.00   0.00   0.60   0.00  0.00   0.0   0.8   0.0   0.0  20.4  18.5  0.00  0.00  0.00
 2016 290 13438 13151  1792   0.00   0.00   0.00   0.00   0.75   0.00  0.00   0.0   0.8   0.0   0.0  23.9  21.2  0.00  0.00  0.00
 2016 291 13439 13152  1792   0.00   0.00   0.00   0.00   0.65   0.00  0.00   0.0   0.8   0.0   0.0  21.4  19.4  0.00  0.00  0.00
 2016 292 13440 13153  1792   0.00   0.00   0.00   0.00   0.44   0.00  0.00   0.0   0.8   0.0   0.0  16.6  15.3  0.00  0.00  0.00
 2016 293 13441 13154  1792   0.00   0.00   0.00   0.00   0.51   0.00  0.00   0.0   0.8   0.0   0.0  17.7  16.8  0.00  0.00  0.00
 2016 294 13442 13155  1792   0.00   0.00   0.00   0.00   0.50   0.00  0.00   0.0   0.8   0.0   0.0  18.2  16.4  0.00  0.00  0.00
 2016 295 13443 13156  1792   0.00   0.00   0.00   0.00   0.45   0.00  0.00   0.0   0.8   0.0   0.0  17.5  15.5  0.00  0.00  0.00
 2016 296 13444 13157  1792   0.00   0.00   0.00   0.00   0.45   0.00  0.00   0.0   0.8   0.0   0.0  19.1  15.1  0.00  0.00  0.00
 2016 297 13445 13158  1792   0.00   0.00   0.00   0.00   0.63   0.00  0.00   0.0   0.8   0.0   0.0  21.6  18.9  0.00  0.00  0.00
 2016 298 13446 13159  1792   0.00   0.00   0.00   0.00   0.59   0.00  0.00   0.0   0.8   0.0   0.0  19.1  18.3  0.00  0.00  0.00
 2016 299 13447 13160  1792   0.00   0.00   0.00   0.00   0.57   0.00  0.00   0.0   0.8   0.0   0.0  18.7  18.0  0.00  0.00  0.00
 2016 300 13448 13161  1792   0.00   0.00   0.00   0.00   0.65   0.00  0.00   0.0   0.8   0.0   0.0  21.2  19.4  0.00  0.00  0.00
 2016 301 13449 13162  1792   0.00   0.00   0.00   0.00   0.45   0.00  0.00   0.0   0.8   0.0   0.0  18.4  15.3  0.00  0.00  0.00
 2016 302 13450 13163  1792   0.00   0.00   0.00   0.00   0.38   0.00  0.00   0.0   0.8   0.0   0.0  16.3  13.7  0.00  0.00  0.00
 2016 303 13451 13164  1792   0.00   0.00   0.00   0.00   0.42   0.00  0.00   0.0   0.8   0.0   0.0  18.9  14.3  0.00  0.00  0.00
 2016 304 13452 13165  1792   0.00   0.00   0.00   0.00   0.61   0.00  0.00   0.0   0.8   0.0   0.0  22.4  18.5  0.00  0.00  0.00
 2016 305 13453 13166  1792   0.00   0.00   0.00   0.00   0.79   0.00  0.00   0.0   0.8   0.0   0.0  26.2  21.8  0.00  0.00  0.00
 2016 306 13454 13167  1792   0.00   0.00   0.00   0.00   0.70   0.00  0.00   0.0   0.8   0.0   0.0  22.5  20.3  0.00  0.00  0.00
 2016 307 13455 13168  1792   0.00   0.00   0.00   0.00   0.49   0.00  0.00   0.0   0.8   0.0   0.0  18.4  16.2  0.00  0.00  0.00
 2016 308 13456 13169  1792   0.00   0.00   0.00   0.00   0.53   0.00  0.00   0.0   0.8   0.0   0.0  21.6  16.7  0.00  0.00  0.00
 2016 309 13457 13170  1792   0.00   0.00   0.00   0.00   0.80   0.00  0.00   0.0   0.8   0.0   0.0  27.0  21.9  0.00  0.00  0.00
 2016 310 13458 13171  1792   0.00   0.00   0.00   0.00   0.77   0.00  0.00   0.0   0.8   0.0   0.0  26.0  21.5  0.00  0.00  0.00
 2016 311 13459 13172  1792   0.00   0.00   0.00   0.00   0.81   0.00  0.00   0.0   0.8   0.0   0.0  26.0  22.2  0.00  0.00  0.00
 2016 312 13460 13173  1792   0.00   0.00   0.00   0.00   0.92   0.00  0.00   0.0   0.8   0.0   0.0  28.5  24.0  0.00  0.00  0.00
 2016 313 13461 13174  1792   0.00   0.00   0.00   0.00   0.69   0.00  0.00   0.0   0.8   0.0   0.0  22.3  20.3  0.00  0.00  0.00
 2016 314 13462 13175  1792   0.00   0.00   0.00   0.00   0.77   0.00  0.00   0.0   0.8   0.0   0.0  23.9  21.7  0.00  0.00  0.00
 2016 315 13463 13176  1792   0.00   0.00   0.00   0.00   0.81   0.00  0.00   0.0   0.8   0.0   0.0  26.2  22.2  0.00  0.00  0.00
 2016 316 13464 13177  1792   0.00   0.00   0.00   0.00   0.58   0.00  0.00   0.0   0.8   0.0   0.0  20.8  18.1  0.00  0.00  0.00
 2016 317 13465 13178  1792   0.00   0.00   0.00   0.00   0.54   0.00  0.00   0.0   0.8   0.0   0.0  22.3  17.0  0.00  0.00  0.00
 2016 318 13466 13179  1792   0.00   0.00   0.00   0.00   0.68   0.00  0.00   0.0   0.8   0.0   0.0  23.7  19.8  0.00  0.00  0.00
 2016 319 13467 13180  1792   0.00   0.00   0.00   0.00   0.87   0.00  0.00   0.0   0.8   0.0   0.0  27.6  23.2  0.00  0.00  0.00
 2016 320 13468 13181  1792   0.00   0.00   0.00   0.00   0.90   0.00  0.00   0.0   0.8   0.0   0.0  27.6  23.8  0.00  0.00  0.00
 2016 321 13469 13182  1792   0.00   0.00   0.00   0.00   0.72   0.00  0.00   0.0   0.8   0.0   0.0  22.6  20.7  0.00  0.00  0.00
 2016 322 13470 13183  1792   0.00   0.00   0.00   0.00   0.48   0.00  0.00   0.0   0.8   0.0   0.0  18.8  16.0  0.00  0.00  0.00
 2016 323 13471 13184  1792   0.00   0.00   0.00   0.00   0.46   0.00  0.00   0.0   0.8   0.0   0.0  18.6  15.5  0.00  0.00  0.00
 2016 324 13472 13185  1792   0.00   0.00   0.00   0.00   0.55   0.00  0.00   0.0   0.8   0.0   0.0  21.3  17.3  0.00  0.00  0.00
 2016 325 13473 13186  1792   0.00   0.00   0.00   0.00   0.61   0.00  0.00   0.0   0.8   0.0   0.0  22.1  18.6  0.00  0.00  0.00
 2016 326 13474 13187  1792   0.00   0.00   0.00   0.00   0.51   0.00  0.00   0.0   0.8   0.0   0.0  18.9  16.6  0.00  0.00  0.00
 2016 327 13475 13188  1792   0.00   0.00   0.00   0.00   0.45   0.00  0.00   0.0   0.8   0.0   0.0  19.0  15.1  0.00  0.00  0.00
 2016 328 13476 13189  1792   0.00   0.00   0.00   0.00   0.62   0.00  0.00   0.0   0.8   0.0   0.0  24.1  18.5  0.00  0.00  0.00
 2016 329 13477 13190  1792   0.00   0.00   0.00   0.00   0.60   0.00  0.00   0.0   0.8   0.0   0.0  22.7  18.3  0.00  0.00  0.00
 2016 330 13478 13191  1792   0.00   0.00   0.00   0.00   0.70   0.00  0.00   0.0   0.8   0.0   0.0  23.3  20.3  0.00  0.00  0.00
 2016 331 13479 13192  1792   0.00   0.00   0.00   0.00   0.83   0.00  0.00   0.0   0.8   0.0   0.0  25.7  22.6  0.00  0.00  0.00
 2016 332 13480 13193  1792   0.00   0.00   0.00   0.00   0.81   0.00  0.00   0.0   0.8   0.0   0.0  24.4  22.4  0.00  0.00  0.00
 2016 333 13481 13194  1792   0.00   0.00   0.00   0.00   0.68   0.00  0.00   0.0   0.8   0.0   0.0  22.4  20.1  0.00  0.00  0.00
 2016 334 13482 13195  1792   0.00   0.00   0.00   0.00   0.61   0.00  0.00   0.0   0.8   0.0   0.0  22.1  18.6  0.00  0.00  0.00
 2016 335 13483 13196  1792   0.00   0.00   0.00   0.00   0.62   0.00  0.00   0.0   0.8   0.0   0.0  23.4  18.7  0.00  0.00  0.00
 2016 336 13484 13197  1792   0.00   0.00   0.00   0.00   0.75   0.00  0.00   0.0   0.8   0.0   0.0  25.0  21.1  0.00  0.00  0.00
 2016 337 13485 13198  1792   0.00   0.00   0.00   0.00   0.91   0.00  0.00   0.0   0.8   0.0   0.0  28.1  23.8  0.00  0.00  0.00
 2016 338 13486 13199  1792   0.00   0.00   0.00   0.00   0.81   0.00  0.00   0.0   0.8   0.0   0.0  24.4  22.4  0.00  0.00  0.00
 2016 339 13487 13200  1792   0.00   0.00   0.00   0.00   0.83   0.00  0.00   0.0   0.8   0.0   0.0  25.3  22.7  0.00  0.00  0.00
 2016 340 13488 13201  1792   0.00   0.00   0.00   0.00   0.83   0.00  0.00   0.0   0.8   0.0   0.0  26.3  22.7  0.00  0.00  0.00
 2016 341 13489 13202  1792   0.00   0.00   0.00   0.00   0.94   0.00  0.00   0.0   0.8   0.0   0.0  28.1  24.5  0.00  0.00  0.00
 2016 342 13490 13203  1792   0.00   0.00   0.00   0.00   0.83   0.00  0.00   0.0   0.8   0.0   0.0  27.4  22.4  0.00  0.00  0.00
 2016 343 13491 13204  1792   0.00   0.00   0.00   0.00   0.72   0.00  0.00   0.0   0.8   0.0   0.0  23.6  20.7  0.00  0.00  0.00
 2016 344 13492 13205  1792   0.00   0.00   0.00   0.00   0.53   0.00  0.00   0.0   0.8   0.0   0.0  21.9  16.8  0.00  0.00  0.00
 2016 345 13493 13206  1792   0.00   0.00   0.00   0.00   0.85   0.00  0.00   0.0   0.8   0.0   0.0  27.8  22.8  0.00  0.00  0.00
 2016 346 13494 13207  1792   0.00   0.00   0.00   0.00   0.88   0.00  0.00   0.0   0.8   0.0   0.0  27.3  23.5  0.00  0.00  0.00
 2016 347 13495 13208  1792   0.00   0.00   0.00   0.00   0.91   0.00  0.00   0.0   0.8   0.0   0.0  30.0  23.6  0.00  0.00  0.00
 2016 348 13496 13209  1792   0.00   0.00   0.00   0.00   0.87   0.00  0.00   0.0   0.8   0.0   0.0  26.7  23.2  0.00  0.00  0.00
 2016 349 13497 13210  1792   0.00   0.00   0.00   0.00   0.52   0.00  0.00   0.0   0.8   0.0   0.0  20.4  16.8  0.00  0.00  0.00
 2016 350 13498 13211  1792   0.00   0.00   0.00   0.00   0.55   0.00  0.00   0.0   0.8   0.0   0.0  22.3  17.1  0.00  0.00  0.00
 2016 351 13499 13212  1792   0.00   0.00   0.00   0.00   0.75   0.00  0.00   0.0   0.8   0.0   0.0  25.1  21.1  0.00  0.00  0.00
 2016 352 13500 13213  1792   0.00   0.00   0.00   0.00   0.99   0.00  0.00   0.0   0.8   0.0   0.0  29.7  25.2  0.00  0.00  0.00
 2016 353 13501 13214  1792   0.00   0.00   0.00   0.00   1.13   0.00  0.00   0.0   0.8   0.0   0.0  31.7  27.4  0.00  0.00  0.00
 2016 354 13502 13215  1792   0.00   0.00   0.00   0.00   0.92   0.00  0.00   0.0   0.8   0.0   0.0  26.8  24.2  0.00  0.00  0.00
 2016 355 13503 13216  1792   0.00   0.00   0.00   0.00   0.86   0.00  0.00   0.0   0.8   0.0   0.0  27.5  23.0  0.00  0.00  0.00
 2016 356 13504 13217  1792   0.00   0.00   0.00   0.00   0.87   0.00  0.00   0.0   0.8   0.0   0.0  27.8  23.1  0.00  0.00  0.00
 2016 357 13505 13218  1792   0.00   0.00   0.00   0.00   1.10   0.00  0.00   0.0   0.8   0.0   0.0  31.5  27.0  0.00  0.00  0.00
 2016 358 13506 13219  1792   0.00   0.00   0.00   0.00   0.97   0.00  0.00   0.0   0.8   0.0   0.0  27.3  25.0  0.00  0.00  0.00
 2016 359 13507 13220  1792   0.00   0.00   0.00   0.00   0.83   0.00  0.00   0.0   0.8   0.0   0.0  26.4  22.6  0.00  0.00  0.00
 2016 360 13508 13221  1792   0.00   0.00   0.00   0.00   0.97   0.00  0.00   0.0   0.8   0.0   0.0  28.8  25.0  0.00  0.00  0.00
 2016 361 13509 13222  1792   0.00   0.00   0.00   0.00   0.89   0.00  0.00   0.0   0.8   0.0   0.0  25.6  23.8  0.00  0.00  0.00
 2016 362 13510 13223  1792   0.00   0.00   0.00   0.00   0.80   0.00  0.00   0.0   0.8   0.0   0.0  23.5  22.1  0.00  0.00  0.00
 2016 363 13511 13224  1792   0.00   0.00   0.00   0.00   0.86   0.00  0.00   0.0   0.8   0.0   0.0  25.9  23.1  0.00  0.00  0.00
 2016 364 13512 13225  1792   0.00   0.00   0.00   0.00   0.88   0.00  0.00   0.0   0.8   0.0   0.0  26.0  23.5  0.00  0.00  0.00
 2016 365 13513 13226  1792   0.00   0.00   0.00   0.00   0.92   0.00  0.00   0.0   0.8   0.0   0.0  26.8  24.2  0.00  0.00  0.00
