*PLANT N OUTPUT FILE

*DSSAT Cropping System Model Ver. 4.8.0.027 -release  FEB 01, 2024 15:59:10

*RUN   1        : MARANDU11299              PRFRM048 SPPI7902    1
 MODEL          : PRFRM048 - Brachiaria
 EXPERIMENT     : SPPI7902 BR
 DATA PATH      : C:/DSSAT48/Brachiaria/
 TREATMENT  1   : MARANDU11299              PRFRM048
  
@YEAR DOY   DAS   DAP  CNAD  GNAD  VNAD  GN%D  VN%D    NFXC   NUPC  LNAD  SNAD  QNAD  LN%D  SN%D  QN%D  SHND  RN%D  NFXD
 1980 288   287     0  57.4   0.0  57.4  0.00  3.37     0.0    0.1  41.6  15.8   1.2  4.16  2.24  1.48  0.00  1.78   0.0
 1980 289   288     1  58.0   0.0  58.0  0.00  3.27     0.0    1.6  42.0  16.0   1.6  4.05  2.17  1.36  0.00  1.72   0.0
 1980 290   289     2  60.0   0.0  60.0  0.00  3.20     0.0    4.9  43.4  16.7   2.3  3.97  2.12  1.37  0.00  1.68   0.0
 1980 291   290     3  61.7   0.0  61.7  0.00  3.11     0.0    8.0  44.5  17.2   3.0  3.87  2.06  1.35  0.00  1.63   0.0
 1980 292   291     4  62.1   0.0  62.1  0.00  3.03     0.0    9.5  44.7  17.5   3.4  3.78  2.01  1.33  0.00  1.58   0.0
 1980 293   292     5  63.5   0.0  63.5  0.00  2.99     0.0   12.0  45.6  17.9   3.9  3.73  1.98  1.32  0.00  1.55   0.0
 1980 294   293     6  64.3   0.0  64.3  0.00  2.93     0.0   13.7  46.1  18.2   4.3  3.66  1.95  1.30  0.00  1.52   0.0
 1980 295   294     7  65.8   0.0  65.8  0.00  2.88     0.0   16.3  47.1  18.7   4.8  3.61  1.92  1.29  0.00  1.50   0.0
 1980 296   295     8  67.8   0.0  67.8  0.00  2.86     0.0   19.2  48.5  19.3   5.2  3.58  1.90  1.28  0.00  1.48   0.0
 1980 297   296     9  70.0   0.0  70.0  0.00  2.85     0.0   22.1  50.0  19.9   5.5  3.57  1.89  1.26  0.00  1.48   0.0
 1980 298   297    10  71.4   0.0  71.4  0.00  2.84     0.0   24.0  51.0  20.4   5.7  3.56  1.89  1.24  0.00  1.47   0.0
 1980 299   298    11  74.0   0.0  74.0  0.00  2.82     0.0   28.0  52.9  21.2   6.3  3.53  1.87  1.24  0.00  1.46   0.0
 1980 300   299    12  75.4   0.0  75.4  0.00  2.75     0.0   30.8  53.7  21.6   6.8  3.46  1.82  1.22  0.00  1.42   0.0
 1980 301   300    13  76.0   0.0  76.0  0.00  2.70     0.0   32.5  54.1  21.9   7.2  3.40  1.79  1.21  0.00  1.40   0.0
 1980 302   301    14  78.4   0.0  78.4  0.00  2.67     0.0   36.7  55.7  22.7   7.8  3.36  1.77  1.21  0.00  1.42   0.0
 1980 303   302    15  80.8   0.0  80.8  0.00  2.63     0.0   40.6  57.4  23.4   8.4  3.32  1.75  1.20  0.00  1.40   0.0
 1980 304   303    16  83.7   0.0  83.7  0.00  2.62     0.0   44.9  59.4  24.3   8.8  3.31  1.74  1.20  0.00  1.45   0.0
 1980 305   304    17  86.4   0.0  86.4  0.00  2.62     0.0   48.4  61.3  25.0   9.1  3.31  1.74  1.18  0.00  1.44   0.0
 1980 306   305    18  88.4   0.0  88.4  0.00  2.61     0.0   51.2  62.7  25.7   9.4  3.30  1.73  1.17  0.00  1.43   0.0
 1980 307   306    19  91.2   0.0  91.2  0.00  2.60     0.0   55.4  64.7  26.5   9.9  3.28  1.72  1.16  0.00  1.44   0.0
 1980 308   307    20  94.1   0.0  94.1  0.00  2.57     0.0   60.1  66.7  27.4  10.5  3.26  1.70  1.16  0.00  1.42   0.0
 1980 309   308    21  97.2   0.0  97.2  0.00  2.54     0.0   65.1  68.8  28.4  11.2  3.23  1.68  1.16  0.00  1.42   0.0
 1980 310   309    22  98.3   0.0  98.3  0.00  2.50     0.0   67.7  69.5  28.8  11.6  3.17  1.65  1.15  0.00  1.39   0.0
 1980 311   310    23  99.5   0.0  99.5  0.00  2.48     0.0   69.9  70.3  29.2  11.8  3.15  1.64  1.14  0.00  1.37   0.0
 1980 312   311    24 102.7   0.0 102.7  0.00  2.47     0.0   74.7  72.7  30.0  12.3  3.15  1.62  1.13  0.00  1.36   0.0
 1980 313   312    25 105.5   0.0 105.5  0.00  2.46     0.0   78.8  74.6  30.8  12.7  3.14  1.61  1.13  0.00  1.34   0.0
 1980 314   313    26 108.3   0.0 108.3  0.00  2.45     0.0   82.8  76.7  31.7  13.1  3.14  1.61  1.12  0.00  1.34   0.0
 1980 315   314    27 111.1   0.0 111.1  0.00  2.45     0.0   86.6  78.7  32.4  13.3  3.14  1.61  1.11  0.00  1.33   0.0
 1980 316   315    28 114.5   0.0 114.5  0.00  2.45     0.0   91.1  81.1  33.4  13.7  3.14  1.60  1.10  0.00  1.33   0.0
 1980 317   316    29 117.6   0.0 117.6  0.00  2.45     0.0   95.5  83.3  34.3  14.1  3.13  1.60  1.09  0.00  1.32   0.0
 1980 318   317    30 120.8   0.0 120.8  0.00  2.44     0.0  100.0  85.5  35.3  14.5  3.13  1.59  1.09  0.00  1.31   0.0
 1980 319   318    31 123.5   0.0 123.5  0.00  2.42     0.0  104.6  87.4  36.2  15.0  3.10  1.58  1.09  0.00  1.30   0.0
 1980 320   319    32 126.2   0.0 126.2  0.00  2.39     0.0  109.4  89.1  37.1  15.6  3.07  1.56  1.09  0.00  1.28   0.0
 1980 321   320    33 127.7   0.0 127.7  0.00  2.36     0.0  112.8  90.0  37.7  16.0  3.03  1.54  1.08  0.00  1.26   0.0
 1980 322   321    34 131.3   0.0 131.3  0.00  2.36     0.0  117.8  92.7  38.6  16.4  3.04  1.54  1.08  0.00  1.25   0.0
 1980 323   322    35 133.2   0.0 133.2  0.00  2.33     0.0  121.4  93.9  39.2  16.7  3.01  1.52  1.07  0.00  1.24   0.0
 1980 324   323    36 135.4   0.0 135.4  0.00  2.31     0.0  125.5  95.4  40.0  17.2  2.98  1.51  1.07  0.00  1.22   0.0
 1980 325   324    37 135.8   0.0 135.8  0.00  2.28     0.0  127.5  95.5  40.3  17.4  2.94  1.48  1.06  0.00  1.20   0.0
 1980 326   325    38 137.0   0.0 137.0  0.00  2.26     0.0  130.2  96.3  40.7  17.7  2.92  1.47  1.05  0.00  1.19   0.0
 1980 327   326    39 135.7   0.0 135.7  0.00  2.21     0.0  130.4  95.1  40.5  17.8  2.86  1.44  1.04  0.00  1.17   0.0
 1980 328   327    40 140.1   0.0 140.1  0.00  2.23     0.0  136.6  98.7  41.4  18.2  2.89  1.44  1.04  0.00  1.17   0.0
 1980 329   328    41 142.6   0.0 142.6  0.00  2.22     0.0  140.6 100.4  42.2  18.5  2.88  1.43  1.04  0.00  1.16   0.0
 1980 330   329    42 145.9   0.0 145.9  0.00  2.21     0.0  145.5 102.7  43.2  18.8  2.88  1.43  1.03  0.00  1.16   0.0
 1980 331   330    43 148.7   0.0 148.7  0.00  2.21     0.0  149.6 104.6  44.1  19.1  2.87  1.43  1.03  0.00  1.16   0.0
 1980 332   331    44 151.0   0.0 151.0  0.00  2.19     0.0  154.0 106.1  44.9  19.6  2.85  1.42  1.03  0.00  1.15   0.0
 1980 333   332    45 149.5   0.0 149.5  0.00  2.15     0.0  154.0 104.7  44.8  19.6  2.79  1.40  1.02  0.00  1.13   0.0
 1980 334   333    46 148.3   0.0 148.3  0.00  2.09     0.0  154.5 103.6  44.7  19.7  2.71  1.36  1.00  0.00  1.10   0.0
 1980 335   334    47 147.4   0.0 147.4  0.00  2.03     0.0  155.3 102.7  44.7  19.9  2.63  1.33  0.99  0.00  1.08   0.0
 1980 336   335    48 145.8   0.0 145.8  0.00  1.97     0.0  155.5 101.3  44.5  20.1  2.55  1.29  0.98  0.00  1.05   0.0
 1980 337   336    49 145.2   0.0 145.2  0.00  1.94     0.0  156.9 100.7  44.5  20.4  2.51  1.28  0.98  0.00  1.04   0.0
 1980 338   337    50 145.0   0.0 145.0  0.00  1.92     0.0  158.6 100.3  44.7  20.8  2.48  1.27  0.99  0.00  1.03   0.0
 1980 339   338    51 143.2   0.0 143.2  0.00  1.86     0.0  159.0  98.8  44.4  20.9  2.40  1.24  0.98  0.00  1.01   0.0
 1980 340   339    52 143.1   0.0 143.1  0.00  1.82     0.0  160.8  98.6  44.6  21.2  2.35  1.22  0.97  0.00  0.99   0.0
 1980 341   340    53 141.7   0.0 141.7  0.00  1.77     0.0  161.5  97.3  44.4  21.4  2.28  1.19  0.97  0.00  0.97   0.0
 1980 342   341    54 140.7   0.0 140.7  0.00  1.73     0.0  162.7  96.4  44.3  21.7  2.22  1.16  0.96  0.00  0.96   0.0
 1980 343   342    55 138.5   0.0 138.5  0.00  1.67     0.0  163.0  94.6  43.8  21.9  2.15  1.13  0.96  0.00  0.94   0.0
 1980 344   343    56 136.6   0.0 136.6  0.00  1.62     0.0  163.6  93.0  43.5  22.2  2.09  1.10  0.96  0.00  0.92   0.0
 1980 345   344    57 135.5   0.0 135.5  0.00  1.58     0.0  164.7  92.0  43.5  22.6  2.03  1.08  0.96  0.00  0.90   0.0
 1980 346   345    58 133.7   0.0 133.7  0.00  1.55     0.0  165.1  90.4  43.3  23.0  1.98  1.06  0.96  0.00  0.89   0.0
 1980 347   346    59 135.1   0.0 135.1  0.00  1.54     0.0  168.7  91.2  43.9  23.5  1.97  1.06  0.97  0.00  0.88   0.0
 1980 348   347    60 134.4   0.0 134.4  0.00  1.51     0.0  170.0  90.6  43.9  23.8  1.93  1.04  0.97  0.00  0.87   0.0
 1980 349   348    61 132.5   0.0 132.5  0.00  1.47     0.0  170.3  89.0  43.5  24.0  1.87  1.02  0.97  0.00  0.86   0.0
 1980 350   349    62 132.9   0.0 132.9  0.00  1.45     0.0  172.7  89.1  43.8  24.4  1.85  1.01  0.97  0.00  0.85   0.0
 1980 351   350    63 131.6   0.0 131.6  0.00  1.42     0.0  173.3  88.1  43.6  24.6  1.81  0.99  0.97  0.00  0.82   0.0
 1980 352   351    64 130.1   0.0 130.1  0.00  1.39     0.0  173.7  86.7  43.4  24.9  1.76  0.98  0.97  0.00  0.81   0.0
 1980 353   352    65 129.7   0.0 129.7  0.00  1.38     0.0  175.3  86.3  43.5  25.1  1.75  0.98  0.98  0.00  0.81   0.0
 1980 354   353    66 128.3   0.0 128.3  0.00  1.36     0.0  175.6  85.1  43.2  25.3  1.71  0.97  0.98  0.00  0.80   0.0
 1980 355   354    67 126.9   0.0 126.9  0.00  1.33     0.0  175.9  84.0  42.9  25.4  1.68  0.95  0.98  0.00  0.78   0.0
 1980 356   355    68 125.6   0.0 125.6  0.00  1.31     0.0  176.3  83.0  42.7  25.5  1.65  0.94  0.97  0.00  0.77   0.0
 1980 357   356    69 124.3   0.0 124.3  0.00  1.29     0.0  176.8  81.9  42.4  25.6  1.62  0.93  0.97  0.00  0.77   0.0
 1980 358   357    70 122.9   0.0 122.9  0.00  1.27     0.0  177.2  80.8  42.1  25.7  1.58  0.92  0.97  0.00  0.75   0.0
 1980 359   358    71 121.4   0.0 121.4  0.00  1.24     0.0  177.7  79.6  41.8  25.8  1.55  0.90  0.97  0.00  0.75   0.0
 1980 360   359    72 119.5   0.0 119.5  0.00  1.22     0.0  178.0  78.1  41.4  25.9  1.51  0.89  0.97  0.00  0.75   0.0
 1980 361   360    73 119.1   0.0 119.1  0.00  1.20     0.0  179.4  77.6  41.4  26.2  1.49  0.88  0.97  0.00  0.74   0.0
 1980 362   361    74 117.9   0.0 117.9  0.00  1.19     0.0  180.2  76.6  41.3  26.3  1.47  0.88  0.97  0.00  0.73   0.0
 1980 363   362    75 117.5   0.0 117.5  0.00  1.18     0.0  181.8  76.1  41.4  26.6  1.46  0.87  0.98  0.00  0.73   0.0
 1980 364   363    76 118.0   0.0 118.0  0.00  1.18     0.0  184.4  76.4  41.6  26.9  1.46  0.87  0.98  0.00  0.72   0.0
 1980 365   364    77 117.3   0.0 117.3  0.00  1.16     0.0  185.6  75.8  41.5  27.1  1.44  0.87  0.98  0.00  0.72   0.0
 1980 366   365    78 116.3   0.0 116.3  0.00  1.15     0.0  186.6  75.0  41.3  27.3  1.41  0.86  0.98  0.00  0.71   0.0
 1981 001   366    79 114.9   0.0 114.9  0.00  1.13     0.0  187.2  73.8  41.1  27.4  1.38  0.85  0.98  0.00  0.70   0.0
 1981 002   367    80 114.1   0.0 114.1  0.00  1.11     0.0  188.3  73.1  41.0  27.6  1.36  0.84  0.98  0.00  0.70   0.0
 1981 003   368    81 112.4   0.0 112.4  0.00  1.10     0.0  188.6  71.7  40.6  27.7  1.34  0.83  0.98  0.00  0.69   0.0
 1981 004   369    82 111.8   0.0 111.8  0.00  1.08     0.0  189.7  71.3  40.5  27.9  1.32  0.82  0.98  0.00  0.68   0.0
 1981 005   370    83 110.7   0.0 110.7  0.00  1.07     0.0  190.4  70.4  40.3  28.0  1.30  0.81  0.98  0.00  0.68   0.0
 1981 006   371    84 108.6   0.0 108.6  0.00  1.05     0.0  190.4  68.8  39.9  28.0  1.27  0.81  0.98  0.00  0.67   0.0
 1981 007   372    85  28.2   0.0  28.2  0.00  0.94     0.0  193.8  10.5  17.7  28.3  1.29  0.81  0.99  0.00  0.67   0.0
 1981 008   373    86  28.6   0.0  28.6  0.00  0.95     0.0  193.9  11.2  17.4  27.8  1.35  0.80  0.98  0.00  0.67   0.0
 1981 009   374    87  30.4   0.0  30.4  0.00  1.00     0.0  195.7  13.0  17.3  27.6  1.51  0.79  0.98  0.00  0.67   0.0
 1981 010   375    88  31.7   0.0  31.7  0.00  1.02     0.0  197.1  14.6  17.1  27.3  1.60  0.78  0.98  0.00  0.66   0.0
 1981 011   376    89  33.1   0.0  33.1  0.00  1.04     0.0  198.4  16.2  16.9  27.0  1.66  0.77  0.97  0.00  0.65   0.0
 1981 012   377    90  33.6   0.0  33.6  0.00  1.04     0.0  199.1  17.0  16.6  26.7  1.66  0.76  0.97  0.00  0.64   0.0
 1981 013   378    91  35.0   0.0  35.0  0.00  1.06     0.0  200.8  18.5  16.4  26.5  1.71  0.75  0.96  0.00  0.64   0.0
 1981 014   379    92  35.0   0.0  35.0  0.00  1.05     0.0  201.1  18.8  16.2  26.3  1.69  0.73  0.96  0.00  0.63   0.0
 1981 015   380    93  35.2   0.0  35.2  0.00  1.05     0.0  201.8  19.2  16.0  26.1  1.68  0.72  0.95  0.00  0.62   0.0
 1981 016   381    94  36.0   0.0  36.0  0.00  1.05     0.0  203.0  20.2  15.8  26.0  1.69  0.71  0.95  0.00  0.62   0.0
 1981 017   382    95  38.2   0.0  38.2  0.00  1.10     0.0  205.7  22.3  15.8  26.0  1.79  0.71  0.95  0.00  0.62   0.0
 1981 018   383    96  38.0   0.0  38.0  0.00  1.08     0.0  206.1  22.4  15.6  25.8  1.75  0.70  0.94  0.00  0.61   0.0
 1981 019   384    97  38.6   0.0  38.6  0.00  1.08     0.0  207.3  23.1  15.5  25.7  1.75  0.69  0.94  0.00  0.61   0.0
 1981 020   385    98  38.7   0.0  38.7  0.00  1.07     0.0  208.1  23.4  15.3  25.5  1.72  0.68  0.94  0.00  0.60   0.0
 1981 021   386    99  38.8   0.0  38.8  0.00  1.07     0.0  208.8  23.6  15.2  25.4  1.71  0.67  0.93  0.00  0.60   0.0
 1981 022   387   100  39.4   0.0  39.4  0.00  1.07     0.0  209.9  24.3  15.1  25.4  1.71  0.67  0.93  0.00  0.59   0.0
 1981 023   388   101  39.2   0.0  39.2  0.00  1.05     0.0  210.4  24.3  15.0  25.3  1.68  0.66  0.93  0.00  0.59   0.0
 1981 024   389   102  40.8   0.0  40.8  0.00  1.07     0.0  212.6  25.8  15.0  25.3  1.71  0.66  0.93  0.00  0.59   0.0
 1981 025   390   103  41.4   0.0  41.4  0.00  1.07     0.0  213.8  26.5  15.0  25.3  1.70  0.65  0.93  0.00  0.58   0.0
 1981 026   391   104  41.1   0.0  41.1  0.00  1.06     0.0  214.2  26.3  14.8  25.2  1.67  0.64  0.92  0.00  0.58   0.0
 1981 027   392   105  40.6   0.0  40.6  0.00  1.04     0.0  214.6  26.0  14.6  25.1  1.63  0.63  0.92  0.00  0.57   0.0
 1981 028   393   106  40.2   0.0  40.2  0.00  1.03     0.0  214.9  25.8  14.5  24.9  1.60  0.63  0.92  0.00  0.57   0.0
 1981 029   394   107  40.3   0.0  40.3  0.00  1.02     0.0  215.7  25.9  14.4  24.9  1.58  0.62  0.92  0.00  0.56   0.0
 1981 030   395   108  40.0   0.0  40.0  0.00  1.00     0.0  216.1  25.6  14.3  24.8  1.56  0.61  0.91  0.00  0.56   0.0
 1981 031   396   109  40.3   0.0  40.3  0.00  1.00     0.0  217.3  26.0  14.4  24.8  1.55  0.61  0.91  0.00  0.56   0.0
 1981 032   397   110  39.8   0.0  39.8  0.00  0.99     0.0  217.5  25.6  14.3  24.6  1.52  0.60  0.91  0.00  0.56   0.0
 1981 033   398   111  39.8   0.0  39.8  0.00  0.98     0.0  218.3  25.6  14.2  24.6  1.50  0.60  0.91  0.00  0.56   0.0
 1981 034   399   112  39.6   0.0  39.6  0.00  0.97     0.0  218.8  25.4  14.2  24.5  1.48  0.60  0.91  0.00  0.55   0.0
 1981 035   400   113  24.8   0.0  24.8  0.00  0.83     0.0  219.0  11.8  13.0  24.4  1.46  0.59  0.90  0.00  0.55   0.0
 1981 036   401   114  25.2   0.0  25.2  0.00  0.83     0.0  219.6  12.3  12.9  24.1  1.47  0.59  0.90  0.00  0.55   0.0
 1981 037   402   115  25.6   0.0  25.6  0.00  0.84     0.0  220.0  12.7  12.9  23.9  1.48  0.59  0.90  0.00  0.55   0.0
 1981 038   403   116  25.9   0.0  25.9  0.00  0.85     0.0  220.6  13.2  12.8  23.7  1.49  0.58  0.89  0.00  0.55   0.0
 1981 039   404   117  26.2   0.0  26.2  0.00  0.85     0.0  221.1  13.6  12.7  23.4  1.50  0.58  0.89  0.00  0.55   0.0
 1981 040   405   118  27.7   0.0  27.7  0.00  0.89     0.0  222.9  14.9  12.7  23.3  1.59  0.58  0.89  0.00  0.55   0.0
 1981 041   406   119  28.0   0.0  28.0  0.00  0.89     0.0  223.3  15.3  12.7  23.1  1.59  0.58  0.89  0.00  0.55   0.0
 1981 042   407   120  27.7   0.0  27.7  0.00  0.88     0.0  223.3  15.1  12.5  22.8  1.56  0.57  0.89  0.00  0.54   0.0
 1981 043   408   121  27.7   0.0  27.7  0.00  0.87     0.0  223.8  15.3  12.4  22.6  1.55  0.57  0.89  0.00  0.54   0.0
 1981 044   409   122  28.0   0.0  28.0  0.00  0.88     0.0  224.4  15.6  12.4  22.5  1.54  0.57  0.89  0.00  0.54   0.0
 1981 045   410   123  27.9   0.0  27.9  0.00  0.87     0.0  224.5  15.6  12.3  22.3  1.53  0.56  0.88  0.00  0.54   0.0
 1981 046   411   124  28.3   0.0  28.3  0.00  0.88     0.0  225.4  16.0  12.3  22.2  1.53  0.56  0.88  0.00  0.54   0.0
 1981 047   412   125  29.6   0.0  29.6  0.00  0.91     0.0  227.2  17.2  12.4  22.2  1.61  0.57  0.88  0.00  0.54   0.0
 1981 048   413   126  29.7   0.0  29.7  0.00  0.90     0.0  227.7  17.3  12.4  22.0  1.59  0.56  0.88  0.00  0.54   0.0
 1981 049   414   127  29.3   0.0  29.3  0.00  0.89     0.0  227.8  17.1  12.3  21.8  1.56  0.56  0.88  0.00  0.54   0.0
 1981 050   415   128  29.3   0.0  29.3  0.00  0.89     0.0  228.2  17.1  12.2  21.7  1.54  0.56  0.88  0.00  0.54   0.0
 1981 051   416   129  29.5   0.0  29.5  0.00  0.89     0.0  228.8  17.3  12.2  21.6  1.53  0.56  0.88  0.00  0.53   0.0
 1981 052   417   130  29.4   0.0  29.4  0.00  0.88     0.0  229.3  17.3  12.1  21.5  1.51  0.55  0.87  0.00  0.53   0.0
 1981 053   418   131  29.3   0.0  29.3  0.00  0.87     0.0  229.7  17.2  12.1  21.4  1.49  0.55  0.87  0.00  0.53   0.0
 1981 054   419   132  29.7   0.0  29.7  0.00  0.88     0.0  230.7  17.6  12.1  21.3  1.49  0.55  0.87  0.00  0.53   0.0
 1981 055   420   133  29.5   0.0  29.5  0.00  0.87     0.0  231.0  17.4  12.0  21.2  1.46  0.55  0.87  0.00  0.53   0.0
 1981 056   421   134  29.2   0.0  29.2  0.00  0.86     0.0  231.2  17.2  12.0  21.0  1.44  0.54  0.87  0.00  0.53   0.0
 1981 057   422   135  28.7   0.0  28.7  0.00  0.84     0.0  231.2  16.8  11.9  20.9  1.41  0.54  0.86  0.00  0.53   0.0
 1981 058   423   136  30.3   0.0  30.3  0.00  0.89     0.0  233.7  18.1  12.2  21.0  1.49  0.55  0.87  0.00  0.53   0.0
 1981 059   424   137  30.4   0.0  30.4  0.00  0.88     0.0  234.1  18.1  12.2  20.9  1.48  0.55  0.87  0.00  0.53   0.0
 1981 060   425   138  30.3   0.0  30.3  0.00  0.88     0.0  234.5  18.1  12.2  20.8  1.46  0.55  0.87  0.00  0.53   0.0
 1981 061   426   139  31.0   0.0  31.0  0.00  0.89     0.0  235.7  18.6  12.4  20.9  1.48  0.56  0.87  0.00  0.53   0.0
 1981 062   427   140  31.5   0.0  31.5  0.00  0.90     0.0  236.6  19.0  12.5  20.9  1.49  0.56  0.87  0.00  0.53   0.0
 1981 063   428   141  25.1   0.0  25.1  0.00  0.84     0.0  238.6  12.6  12.5  21.0  1.55  0.57  0.88  0.00  0.53   0.0
 1981 064   429   142  26.1   0.0  26.1  0.00  0.86     0.0  239.9  13.6  12.5  21.0  1.63  0.57  0.88  0.00  0.53   0.0
 1981 065   430   143  27.4   0.0  27.4  0.00  0.90     0.0  241.6  14.8  12.6  21.1  1.71  0.57  0.88  0.00  0.53   0.0
 1981 066   431   144  28.5   0.0  28.5  0.00  0.92     0.0  243.0  15.9  12.6  21.1  1.78  0.58  0.89  0.00  0.53   0.0
 1981 067   432   145  30.0   0.0  30.0  0.00  0.96     0.0  245.0  17.2  12.7  21.2  1.86  0.58  0.89  0.00  0.53   0.0
 1981 068   433   146  31.6   0.0  31.6  0.00  1.00     0.0  247.1  18.7  12.8  21.3  1.95  0.58  0.89  0.00  0.54   0.0
 1981 069   434   147  33.3   0.0  33.3  0.00  1.04     0.0  249.4  20.3  13.0  21.5  2.02  0.59  0.90  0.00  0.54   0.0
 1981 070   435   148  35.0   0.0  35.0  0.00  1.07     0.0  251.8  21.9  13.1  21.7  2.09  0.59  0.90  0.00  0.54   0.0
 1981 071   436   149  34.5   0.0  34.5  0.00  1.05     0.0  251.8  21.5  13.0  21.6  2.04  0.58  0.89  0.00  0.54   0.0
 1981 072   437   150  36.7   0.0  36.7  0.00  1.10     0.0  255.2  23.3  13.4  21.9  2.14  0.60  0.90  0.00  0.55   0.0
 1981 073   438   151  37.8   0.0  37.8  0.00  1.12     0.0  256.9  24.3  13.4  22.0  2.16  0.60  0.90  0.00  0.55   0.0
 1981 074   439   152  39.7   0.0  39.7  0.00  1.16     0.0  259.7  26.0  13.7  22.3  2.23  0.61  0.91  0.00  0.55   0.0
 1981 075   440   153  41.5   0.0  41.5  0.00  1.20     0.0  262.3  27.7  13.8  22.6  2.28  0.61  0.91  0.00  0.55   0.0
 1981 076   441   154  42.9   0.0  42.9  0.00  1.22     0.0  264.3  28.9  14.0  22.9  2.32  0.62  0.92  0.00  0.55   0.0
 1981 077   442   155  44.5   0.0  44.5  0.00  1.25     0.0  266.6  30.4  14.2  23.2  2.36  0.62  0.92  0.00  0.55   0.0
 1981 078   443   156  46.1   0.0  46.1  0.00  1.28     0.0  269.1  31.8  14.3  23.5  2.39  0.63  0.93  0.00  0.56   0.0
 1981 079   444   157  47.8   0.0  47.8  0.00  1.31     0.0  271.6  33.3  14.5  23.8  2.43  0.63  0.93  0.00  0.56   0.0
 1981 080   445   158  49.3   0.0  49.3  0.00  1.33     0.0  273.7  34.6  14.7  24.1  2.46  0.64  0.93  0.00  0.56   0.0
 1981 081   446   159  50.8   0.0  50.8  0.00  1.35     0.0  276.1  35.9  14.9  24.5  2.48  0.64  0.94  0.00  0.56   0.0
 1981 082   447   160  51.1   0.0  51.1  0.00  1.34     0.0  277.3  36.2  14.9  24.7  2.42  0.64  0.94  0.00  0.56   0.0
 1981 083   448   161  50.3   0.0  50.3  0.00  1.31     0.0  277.3  35.5  14.8  24.7  2.36  0.63  0.93  0.00  0.56   0.0
 1981 084   449   162  49.5   0.0  49.5  0.00  1.28     0.0  277.3  34.9  14.6  24.7  2.31  0.62  0.92  0.00  0.55   0.0
 1981 085   450   163  48.6   0.0  48.6  0.00  1.25     0.0  277.3  34.1  14.5  24.6  2.24  0.62  0.92  0.00  0.55   0.0
 1981 086   451   164  47.7   0.0  47.7  0.00  1.23     0.0  277.3  33.3  14.4  24.6  2.18  0.61  0.91  0.00  0.55   0.0
 1981 087   452   165  46.7   0.0  46.7  0.00  1.20     0.0  277.3  32.4  14.3  24.6  2.12  0.60  0.91  0.00  0.55   0.0
 1981 088   453   166  45.9   0.0  45.9  0.00  1.18     0.0  277.3  31.7  14.2  24.6  2.07  0.60  0.91  0.00  0.54   0.0
 1981 089   454   167  47.7   0.0  47.7  0.00  1.21     0.0  280.5  33.2  14.5  25.0  2.12  0.61  0.92  0.00  0.55   0.0
 1981 090   455   168  48.7   0.0  48.7  0.00  1.23     0.0  282.3  34.0  14.7  25.2  2.14  0.62  0.92  0.00  0.55   0.0
 1981 091   456   169  31.3   0.0  31.3  0.00  1.04     0.0  285.0  17.6  13.7  25.7  2.17  0.63  0.93  0.00  0.56   0.0
 1981 092   457   170  32.5   0.0  32.5  0.00  1.07     0.0  286.5  18.8  13.7  25.6  2.23  0.63  0.93  0.00  0.56   0.0
 1981 093   458   171  33.8   0.0  33.8  0.00  1.10     0.0  288.2  20.1  13.8  25.7  2.29  0.63  0.93  0.00  0.56   0.0
 1981 094   459   172  35.3   0.0  35.3  0.00  1.14     0.0  290.1  21.5  13.8  25.7  2.35  0.63  0.93  0.00  0.56   0.0
 1981 095   460   173  36.8   0.0  36.8  0.00  1.17     0.0  292.0  22.9  13.9  25.8  2.40  0.63  0.93  0.00  0.56   0.0
 1981 096   461   174  38.3   0.0  38.3  0.00  1.20     0.0  294.1  24.3  14.0  26.0  2.45  0.64  0.93  0.00  0.56   0.0
 1981 097   462   175  39.8   0.0  39.8  0.00  1.23     0.0  296.4  25.8  14.1  26.2  2.48  0.64  0.94  0.00  0.56   0.0
 1981 098   463   176  41.3   0.0  41.3  0.00  1.26     0.0  298.6  27.2  14.1  26.4  2.52  0.64  0.94  0.00  0.56   0.0
 1981 099   464   177  42.5   0.0  42.5  0.00  1.28     0.0  300.5  28.3  14.2  26.5  2.54  0.64  0.94  0.00  0.56   0.0
 1981 100   465   178  43.2   0.0  43.2  0.00  1.29     0.0  301.8  29.0  14.2  26.6  2.54  0.64  0.95  0.00  0.56   0.0
 1981 101   466   179  43.9   0.0  43.9  0.00  1.30     0.0  303.2  29.7  14.2  26.7  2.54  0.64  0.95  0.00  0.56   0.0
 1981 102   467   180  44.9   0.0  44.9  0.00  1.31     0.0  305.0  30.6  14.3  26.9  2.55  0.64  0.95  0.00  0.56   0.0
 1981 103   468   181  46.0   0.0  46.0  0.00  1.33     0.0  306.9  31.6  14.4  27.1  2.56  0.65  0.96  0.00  0.56   0.0
 1981 104   469   182  46.8   0.0  46.8  0.00  1.34     0.0  308.2  32.3  14.5  27.3  2.56  0.65  0.96  0.00  0.56   0.0
 1981 105   470   183  48.3   0.0  48.3  0.00  1.37     0.0  310.6  33.6  14.6  27.6  2.59  0.66  0.96  0.00  0.56   0.0
 1981 106   471   184  49.6   0.0  49.6  0.00  1.39     0.0  312.6  34.8  14.8  27.8  2.61  0.66  0.96  0.00  0.57   0.0
 1981 107   472   185  50.9   0.0  50.9  0.00  1.41     0.0  314.6  36.0  14.9  28.1  2.63  0.66  0.97  0.00  0.57   0.0
 1981 108   473   186  52.1   0.0  52.1  0.00  1.43     0.0  316.6  37.1  15.0  28.4  2.64  0.67  0.97  0.00  0.57   0.0
 1981 109   474   187  53.3   0.0  53.3  0.00  1.44     0.0  318.8  38.2  15.2  28.7  2.65  0.67  0.97  0.00  0.57   0.0
 1981 110   475   188  54.5   0.0  54.5  0.00  1.46     0.0  321.0  39.2  15.3  29.1  2.66  0.67  0.98  0.00  0.57   0.0
 1981 111   476   189  55.6   0.0  55.6  0.00  1.47     0.0  323.1  40.2  15.4  29.4  2.66  0.68  0.98  0.00  0.57   0.0
 1981 112   477   190  56.4   0.0  56.4  0.00  1.47     0.0  324.9  40.9  15.5  29.7  2.65  0.68  0.99  0.00  0.57   0.0
 1981 113   478   191  57.7   0.0  57.7  0.00  1.49     0.0  327.3  42.0  15.7  30.1  2.66  0.68  0.99  0.00  0.57   0.0
 1981 114   479   192  58.9   0.0  58.9  0.00  1.51     0.0  329.3  43.1  15.8  30.4  2.67  0.69  0.99  0.00  0.58   0.0
 1981 115   480   193  59.4   0.0  59.4  0.00  1.51     0.0  330.4  43.5  15.9  30.6  2.66  0.69  0.99  0.00  0.58   0.0
 1981 116   481   194  60.3   0.0  60.3  0.00  1.52     0.0  332.4  44.3  16.0  30.9  2.66  0.69  1.00  0.00  0.58   0.0
 1981 117   482   195  61.4   0.0  61.4  0.00  1.53     0.0  334.4  45.2  16.2  31.3  2.67  0.70  1.00  0.00  0.58   0.0
 1981 118   483   196  62.3   0.0  62.3  0.00  1.54     0.0  336.0  46.0  16.3  31.5  2.67  0.70  1.00  0.00  0.58   0.0
 1981 119   484   197  63.5   0.0  63.5  0.00  1.56     0.0  338.0  47.1  16.5  31.8  2.68  0.71  1.01  0.00  0.59   0.0
 1981 120   485   198  64.5   0.0  64.5  0.00  1.57     0.0  339.7  47.9  16.6  32.1  2.69  0.71  1.01  0.00  0.59   0.0
 1981 121   486   199  65.6   0.0  65.6  0.00  1.58     0.0  341.5  48.8  16.8  32.4  2.69  0.72  1.01  0.00  0.59   0.0
 1981 122   487   200  66.4   0.0  66.4  0.00  1.58     0.0  343.2  49.5  16.9  32.7  2.69  0.72  1.01  0.00  0.59   0.0
 1981 123   488   201  66.9   0.0  66.9  0.00  1.58     0.0  344.6  49.9  17.0  33.0  2.68  0.72  1.02  0.00  0.59   0.0
 1981 124   489   202  67.6   0.0  67.6  0.00  1.58     0.0  346.5  50.4  17.2  33.3  2.66  0.72  1.02  0.00  0.59   0.0
 1981 125   490   203  67.6   0.0  67.6  0.00  1.57     0.0  347.8  50.3  17.3  33.7  2.63  0.72  1.02  0.00  0.59   0.0
 1981 126   491   204  67.3   0.0  67.3  0.00  1.56     0.0  348.6  50.0  17.3  33.9  2.60  0.72  1.03  0.00  0.59   0.0
 1981 127   492   205  67.6   0.0  67.6  0.00  1.56     0.0  350.3  50.1  17.5  34.2  2.57  0.73  1.03  0.00  0.59   0.0
 1981 128   493   206  67.8   0.0  67.8  0.00  1.55     0.0  351.7  50.1  17.6  34.6  2.55  0.73  1.04  0.00  0.59   0.0
 1981 129   494   207  67.5   0.0  67.5  0.00  1.54     0.0  352.6  49.8  17.7  34.8  2.52  0.73  1.04  0.00  0.59   0.0
 1981 130   495   208  67.7   0.0  67.7  0.00  1.53     0.0  353.9  49.8  17.9  35.1  2.50  0.74  1.04  0.00  0.59   0.0
 1981 131   496   209  67.5   0.0  67.5  0.00  1.52     0.0  354.8  49.5  18.0  35.3  2.46  0.74  1.05  0.00  0.59   0.0
 1981 132   497   210  67.5   0.0  67.5  0.00  1.51     0.0  356.1  49.3  18.2  35.6  2.44  0.74  1.05  0.00  0.59   0.0
 1981 133   498   211  67.5   0.0  67.5  0.00  1.50     0.0  357.2  49.1  18.4  35.8  2.42  0.75  1.05  0.00  0.59   0.0
 1981 134   499   212  67.9   0.0  67.9  0.00  1.50     0.0  358.5  49.4  18.6  36.1  2.41  0.75  1.06  0.00  0.59   0.0
 1981 135   500   213  68.8   0.0  68.8  0.00  1.51     0.0  360.1  50.0  18.8  36.3  2.42  0.76  1.06  0.00  0.59   0.0
 1981 136   501   214  69.3   0.0  69.3  0.00  1.51     0.0  361.3  50.3  19.0  36.5  2.41  0.76  1.06  0.00  0.59   0.0
 1981 137   502   215  69.7   0.0  69.7  0.00  1.51     0.0  362.7  50.4  19.3  36.7  2.40  0.77  1.06  0.00  0.59   0.0
 1981 138   503   216  69.8   0.0  69.8  0.00  1.50     0.0  363.9  50.4  19.5  37.0  2.38  0.77  1.06  0.00  0.59   0.0
 1981 139   504   217  69.8   0.0  69.8  0.00  1.49     0.0  364.9  50.1  19.7  37.2  2.36  0.77  1.07  0.00  0.59   0.0
 1981 140   505   218  70.8   0.0  70.8  0.00  1.51     0.0  366.6  50.8  20.0  37.4  2.37  0.78  1.07  0.00  0.59   0.0
 1981 141   506   219  71.2   0.0  71.2  0.00  1.51     0.0  367.5  51.1  20.2  37.6  2.36  0.79  1.07  0.00  0.59   0.0
 1981 142   507   220  71.5   0.0  71.5  0.00  1.50     0.0  368.7  51.1  20.4  37.8  2.35  0.79  1.07  0.00  0.59   0.0
 1981 143   508   221  71.4   0.0  71.4  0.00  1.49     0.0  369.7  50.8  20.6  38.0  2.32  0.79  1.07  0.00  0.59   0.0
 1981 144   509   222  71.4   0.0  71.4  0.00  1.48     0.0  370.8  50.6  20.8  38.3  2.31  0.79  1.07  0.00  0.59   0.0
 1981 145   510   223  70.9   0.0  70.9  0.00  1.47     0.0  370.9  50.0  20.9  38.3  2.28  0.79  1.07  0.00  0.59   0.0
 1981 146   511   224  71.6   0.0  71.6  0.00  1.48     0.0  372.3  50.5  21.1  38.5  2.29  0.80  1.07  0.00  0.59   0.0
 1981 147   512   225  36.3   0.0  36.3  0.00  1.21     0.0  373.7  18.6  17.7  38.6  2.30  0.81  1.08  0.00  0.59   0.0
 1981 148   513   226  36.7   0.0  36.7  0.00  1.22     0.0  374.0  19.2  17.6  38.3  2.31  0.80  1.07  0.00  0.59   0.0
 1981 149   514   227  37.5   0.0  37.5  0.00  1.23     0.0  374.8  20.0  17.5  38.0  2.35  0.80  1.06  0.00  0.59   0.0
 1981 150   515   228  38.2   0.0  38.2  0.00  1.25     0.0  375.5  20.8  17.4  37.7  2.38  0.79  1.05  0.00  0.59   0.0
 1981 151   516   229  39.0   0.0  39.0  0.00  1.26     0.0  376.4  21.7  17.3  37.4  2.41  0.79  1.05  0.00  0.59   0.0
 1981 152   517   230  39.7   0.0  39.7  0.00  1.27     0.0  377.3  22.6  17.1  37.2  2.43  0.78  1.04  0.00  0.59   0.0
 1981 153   518   231  40.2   0.0  40.2  0.00  1.28     0.0  377.7  23.1  17.1  37.0  2.45  0.78  1.04  0.00  0.59   0.0
 1981 154   519   232  40.7   0.0  40.7  0.00  1.29     0.0  378.2  23.6  17.1  36.8  2.47  0.78  1.03  0.00  0.59   0.0
 1981 155   520   233  40.8   0.0  40.8  0.00  1.29     0.0  378.2  23.7  17.1  36.5  2.47  0.78  1.03  0.00  0.59   0.0
 1981 156   521   234  41.2   0.0  41.2  0.00  1.30     0.0  378.5  24.1  17.1  36.3  2.48  0.78  1.02  0.00  0.59   0.0
 1981 157   522   235  41.7   0.0  41.7  0.00  1.31     0.0  379.1  24.6  17.1  36.1  2.50  0.78  1.02  0.00  0.59   0.0
 1981 158   523   236  42.3   0.0  42.3  0.00  1.32     0.0  379.7  25.2  17.1  36.0  2.52  0.78  1.01  0.00  0.59   0.0
 1981 159   524   237  42.9   0.0  42.9  0.00  1.33     0.0  380.3  25.8  17.1  35.9  2.54  0.78  1.01  0.00  0.59   0.0
 1981 160   525   238  43.0   0.0  43.0  0.00  1.33     0.0  380.4  26.0  17.1  35.7  2.53  0.78  1.00  0.00  0.59   0.0
 1981 161   526   239  43.5   0.0  43.5  0.00  1.34     0.0  380.9  26.4  17.1  35.6  2.55  0.78  1.00  0.00  0.59   0.0
 1981 162   527   240  44.0   0.0  44.0  0.00  1.35     0.0  381.4  26.9  17.1  35.4  2.56  0.78  0.99  0.00  0.59   0.0
 1981 163   528   241  44.1   0.0  44.1  0.00  1.35     0.0  381.4  26.9  17.1  35.2  2.56  0.78  0.99  0.00  0.60   0.0
 1981 164   529   242  44.1   0.0  44.1  0.00  1.35     0.0  381.4  27.0  17.1  35.1  2.57  0.78  0.99  0.00  0.60   0.0
 1981 165   530   243  44.2   0.0  44.2  0.00  1.36     0.0  381.4  27.0  17.2  34.9  2.57  0.78  0.98  0.00  0.60   0.0
 1981 166   531   244  45.0   0.0  45.0  0.00  1.37     0.0  382.7  27.8  17.2  34.9  2.59  0.78  0.98  0.00  0.61   0.0
 1981 167   532   245  45.5   0.0  45.5  0.00  1.38     0.0  383.2  28.3  17.3  34.8  2.61  0.78  0.98  0.00  0.61   0.0
 1981 168   533   246  45.7   0.0  45.7  0.00  1.39     0.0  383.2  28.4  17.3  34.6  2.61  0.78  0.97  0.00  0.61   0.0
 1981 169   534   247  45.7   0.0  45.7  0.00  1.39     0.0  383.2  28.5  17.3  34.5  2.61  0.78  0.97  0.00  0.61   0.0
 1981 170   535   248  45.8   0.0  45.8  0.00  1.39     0.0  383.2  28.5  17.2  34.3  2.61  0.78  0.97  0.00  0.61   0.0
 1981 171   536   249  45.8   0.0  45.8  0.00  1.39     0.0  383.2  28.5  17.3  34.1  2.61  0.78  0.96  0.00  0.61   0.0
 1981 172   537   250  45.9   0.0  45.9  0.00  1.39     0.0  383.4  28.6  17.2  34.0  2.61  0.78  0.96  0.00  0.61   0.0
 1981 173   538   251  46.4   0.0  46.4  0.00  1.40     0.0  384.1  29.1  17.3  34.0  2.62  0.78  0.96  0.00  0.61   0.0
 1981 174   539   252  47.2   0.0  47.2  0.00  1.41     0.0  385.0  29.9  17.3  34.0  2.64  0.78  0.96  0.00  0.61   0.0
 1981 175   540   253  47.8   0.0  47.8  0.00  1.42     0.0  385.9  30.5  17.3  34.0  2.65  0.78  0.95  0.00  0.61   0.0
 1981 176   541   254  48.3   0.0  48.3  0.00  1.43     0.0  386.6  31.0  17.3  34.0  2.66  0.78  0.95  0.00  0.61   0.0
 1981 177   542   255  48.9   0.0  48.9  0.00  1.43     0.0  387.7  31.7  17.2  34.1  2.66  0.78  0.96  0.00  0.61   0.0
 1981 178   543   256  49.4   0.0  49.4  0.00  1.44     0.0  388.7  32.2  17.2  34.2  2.65  0.77  0.96  0.00  0.61   0.0
 1981 179   544   257  49.8   0.0  49.8  0.00  1.44     0.0  389.6  32.7  17.1  34.2  2.65  0.77  0.96  0.00  0.61   0.0
 1981 180   545   258  50.3   0.0  50.3  0.00  1.45     0.0  390.6  33.3  17.1  34.3  2.65  0.77  0.96  0.00  0.61   0.0
 1981 181   546   259  51.0   0.0  51.0  0.00  1.45     0.0  391.8  33.9  17.0  34.4  2.65  0.76  0.96  0.00  0.61   0.0
 1981 182   547   260  51.6   0.0  51.6  0.00  1.46     0.0  392.6  34.4  17.1  34.5  2.67  0.77  0.96  0.00  0.61   0.0
 1981 183   548   261  51.8   0.0  51.8  0.00  1.47     0.0  392.9  34.7  17.1  34.4  2.67  0.77  0.96  0.00  0.61   0.0
 1981 184   549   262  52.0   0.0  52.0  0.00  1.47     0.0  393.2  34.9  17.1  34.4  2.67  0.77  0.96  0.00  0.61   0.0
 1981 185   550   263  52.4   0.0  52.4  0.00  1.47     0.0  393.7  35.2  17.1  34.4  2.67  0.77  0.96  0.00  0.61   0.0
 1981 186   551   264  52.8   0.0  52.8  0.00  1.48     0.0  394.4  35.6  17.2  34.5  2.68  0.77  0.96  0.00  0.61   0.0
 1981 187   552   265  53.5   0.0  53.5  0.00  1.49     0.0  395.5  36.3  17.2  34.6  2.69  0.77  0.96  0.00  0.61   0.0
 1981 188   553   266  54.1   0.0  54.1  0.00  1.50     0.0  396.5  36.9  17.2  34.7  2.69  0.77  0.96  0.00  0.61   0.0
 1981 189   554   267  54.7   0.0  54.7  0.00  1.51     0.0  397.5  37.5  17.3  34.8  2.70  0.77  0.96  0.00  0.61   0.0
 1981 190   555   268  55.4   0.0  55.4  0.00  1.51     0.0  398.6  38.1  17.3  34.9  2.70  0.77  0.96  0.00  0.61   0.0
 1981 191   556   269  56.1   0.0  56.1  0.00  1.52     0.0  399.9  38.8  17.3  35.1  2.71  0.77  0.96  0.00  0.61   0.0
 1981 192   557   270  56.7   0.0  56.7  0.00  1.53     0.0  400.9  39.3  17.4  35.2  2.71  0.77  0.97  0.00  0.61   0.0
 1981 193   558   271  57.2   0.0  57.2  0.00  1.53     0.0  402.2  39.9  17.3  35.4  2.70  0.77  0.97  0.00  0.61   0.0
 1981 194   559   272  57.4   0.0  57.4  0.00  1.53     0.0  403.0  40.1  17.3  35.5  2.69  0.76  0.97  0.00  0.61   0.0
 1981 195   560   273  57.7   0.0  57.7  0.00  1.52     0.0  404.2  40.5  17.2  35.7  2.67  0.76  0.97  0.00  0.61   0.0
 1981 196   561   274  57.7   0.0  57.7  0.00  1.52     0.0  404.9  40.5  17.2  35.9  2.64  0.76  0.98  0.00  0.61   0.0
 1981 197   562   275  58.0   0.0  58.0  0.00  1.52     0.0  405.8  40.8  17.2  36.0  2.64  0.76  0.98  0.00  0.61   0.0
 1981 198   563   276  58.5   0.0  58.5  0.00  1.53     0.0  406.5  41.3  17.2  36.0  2.65  0.76  0.98  0.00  0.61   0.0
 1981 199   564   277  58.7   0.0  58.7  0.00  1.53     0.0  406.8  41.4  17.3  36.0  2.65  0.76  0.98  0.00  0.61   0.0
 1981 200   565   278  58.7   0.0  58.7  0.00  1.53     0.0  406.8  41.4  17.3  36.0  2.65  0.76  0.97  0.00  0.61   0.0
 1981 201   566   279  59.4   0.0  59.4  0.00  1.54     0.0  408.0  42.0  17.4  36.1  2.66  0.76  0.98  0.00  0.62   0.0
 1981 202   567   280  60.1   0.0  60.1  0.00  1.55     0.0  408.9  42.6  17.5  36.2  2.67  0.77  0.98  0.00  0.62   0.0
 1981 203   568   281  38.5   0.0  38.5  0.00  1.28     0.0  409.5  21.7  16.8  36.2  2.68  0.77  0.98  0.00  0.62   0.0
 1981 204   569   282  38.8   0.0  38.8  0.00  1.29     0.0  409.5  21.9  16.8  35.9  2.68  0.77  0.97  0.00  0.62   0.0
 1981 205   570   283  38.9   0.0  38.9  0.00  1.29     0.0  409.5  22.0  16.9  35.7  2.69  0.77  0.96  0.00  0.62   0.0
 1981 206   571   284  39.3   0.0  39.3  0.00  1.30     0.0  409.9  22.4  16.9  35.5  2.71  0.77  0.96  0.00  0.62   0.0
 1981 207   572   285  39.8   0.0  39.8  0.00  1.31     0.0  410.3  22.9  16.9  35.3  2.72  0.77  0.95  0.00  0.62   0.0
 1981 208   573   286  40.1   0.0  40.1  0.00  1.32     0.0  410.5  23.2  16.9  35.0  2.72  0.77  0.95  0.00  0.62   0.0
 1981 209   574   287  40.7   0.0  40.7  0.00  1.33     0.0  411.2  23.8  16.9  34.9  2.74  0.77  0.94  0.00  0.62   0.0
 1981 210   575   288  41.6   0.0  41.6  0.00  1.34     0.0  412.4  24.8  16.9  34.9  2.76  0.77  0.94  0.00  0.62   0.0
 1981 211   576   289  42.3   0.0  42.3  0.00  1.35     0.0  413.2  25.5  16.8  34.8  2.77  0.76  0.94  0.00  0.62   0.0
 1981 212   577   290  42.8   0.0  42.8  0.00  1.36     0.0  413.9  26.1  16.7  34.7  2.77  0.76  0.94  0.00  0.62   0.0
 1981 213   578   291  43.7   0.0  43.7  0.00  1.38     0.0  415.3  27.0  16.7  34.7  2.78  0.76  0.94  0.00  0.62   0.0
 1981 214   579   292  44.7   0.0  44.7  0.00  1.39     0.0  416.7  28.0  16.7  34.8  2.79  0.75  0.94  0.00  0.61   0.0
 1981 215   580   293  45.5   0.0  45.5  0.00  1.40     0.0  418.1  28.9  16.6  34.8  2.79  0.75  0.94  0.00  0.61   0.0
 1981 216   581   294  46.3   0.0  46.3  0.00  1.41     0.0  419.6  29.8  16.5  34.9  2.79  0.75  0.94  0.00  0.61   0.0
 1981 217   582   295  46.8   0.0  46.8  0.00  1.41     0.0  420.7  30.4  16.4  35.0  2.77  0.74  0.94  0.00  0.61   0.0
 1981 218   583   296  47.0   0.0  47.0  0.00  1.41     0.0  421.3  30.7  16.3  35.0  2.75  0.73  0.95  0.00  0.60   0.0
 1981 219   584   297  47.2   0.0  47.2  0.00  1.41     0.0  422.0  31.0  16.2  35.0  2.74  0.73  0.95  0.00  0.60   0.0
 1981 220   585   298  48.4   0.0  48.4  0.00  1.43     0.0  423.8  32.0  16.4  35.2  2.76  0.74  0.95  0.00  0.61   0.0
 1981 221   586   299  48.4   0.0  48.4  0.00  1.43     0.0  423.8  32.0  16.4  35.1  2.76  0.74  0.95  0.00  0.61   0.0
 1981 222   587   300  48.7   0.0  48.7  0.00  1.43     0.0  424.3  32.3  16.4  35.0  2.76  0.74  0.95  0.00  0.61   0.0
 1981 223   588   301  48.6   0.0  48.6  0.00  1.43     0.0  424.3  32.2  16.4  34.9  2.75  0.74  0.95  0.00  0.61   0.0
 1981 224   589   302  49.6   0.0  49.6  0.00  1.45     0.0  425.7  33.0  16.6  35.1  2.77  0.74  0.95  0.00  0.61   0.0
 1981 225   590   303  50.5   0.0  50.5  0.00  1.46     0.0  427.0  33.9  16.6  35.2  2.79  0.75  0.95  0.00  0.62   0.0
 1981 226   591   304  50.9   0.0  50.9  0.00  1.47     0.0  427.6  34.2  16.7  35.2  2.79  0.75  0.95  0.00  0.62   0.0
 1981 227   592   305  51.6   0.0  51.6  0.00  1.48     0.0  428.8  34.9  16.7  35.3  2.80  0.75  0.95  0.00  0.62   0.0
 1981 228   593   306  52.6   0.0  52.6  0.00  1.49     0.0  430.3  35.8  16.7  35.5  2.80  0.75  0.95  0.00  0.62   0.0
 1981 229   594   307  53.7   0.0  53.7  0.00  1.51     0.0  432.1  36.9  16.8  35.7  2.81  0.75  0.95  0.00  0.62   0.0
 1981 230   595   308  54.7   0.0  54.7  0.00  1.52     0.0  433.7  37.8  16.9  35.9  2.82  0.75  0.95  0.00  0.62   0.0
 1981 231   596   309  55.3   0.0  55.3  0.00  1.53     0.0  434.7  38.4  17.0  36.0  2.83  0.75  0.95  0.00  0.62   0.0
 1981 232   597   310  55.9   0.0  55.9  0.00  1.54     0.0  435.6  38.9  17.0  36.1  2.83  0.75  0.95  0.00  0.62   0.0
 1981 233   598   311  56.6   0.0  56.6  0.00  1.54     0.0  436.8  39.6  17.0  36.3  2.83  0.75  0.96  0.00  0.62   0.0
 1981 234   599   312  57.6   0.0  57.6  0.00  1.56     0.0  438.5  40.5  17.1  36.5  2.84  0.75  0.96  0.00  0.62   0.0
 1981 235   600   313  58.6   0.0  58.6  0.00  1.57     0.0  440.2  41.4  17.2  36.7  2.84  0.75  0.96  0.00  0.62   0.0
 1981 236   601   314  59.7   0.0  59.7  0.00  1.58     0.0  442.1  42.4  17.3  37.0  2.84  0.75  0.96  0.00  0.62   0.0
 1981 237   602   315  60.5   0.0  60.5  0.00  1.58     0.0  443.6  43.1  17.3  37.2  2.84  0.75  0.97  0.00  0.62   0.0
 1981 238   603   316  61.1   0.0  61.1  0.00  1.59     0.0  444.9  43.8  17.4  37.4  2.83  0.76  0.97  0.00  0.62   0.0
 1981 239   604   317  62.2   0.0  62.2  0.00  1.60     0.0  446.6  44.7  17.5  37.7  2.84  0.76  0.97  0.00  0.62   0.0
 1981 240   605   318  63.2   0.0  63.2  0.00  1.61     0.0  448.1  45.6  17.6  37.9  2.85  0.76  0.97  0.00  0.62   0.0
 1981 241   606   319  64.1   0.0  64.1  0.00  1.62     0.0  449.9  46.4  17.7  38.1  2.84  0.76  0.97  0.00  0.62   0.0
 1981 242   607   320  65.4   0.0  65.4  0.00  1.64     0.0  452.0  47.6  17.9  38.4  2.85  0.77  0.98  0.00  0.63   0.0
 1981 243   608   321  66.7   0.0  66.7  0.00  1.65     0.0  453.8  48.7  18.0  38.7  2.87  0.77  0.98  0.00  0.63   0.0
 1981 244   609   322  67.8   0.0  67.8  0.00  1.67     0.0  455.3  49.6  18.2  38.9  2.88  0.77  0.98  0.00  0.63   0.0
 1981 245   610   323  68.8   0.0  68.8  0.00  1.68     0.0  456.9  50.5  18.3  39.1  2.89  0.78  0.98  0.00  0.63   0.0
 1981 246   611   324  69.8   0.0  69.8  0.00  1.69     0.0  458.4  51.4  18.4  39.3  2.89  0.78  0.98  0.00  0.63   0.0
 1981 247   612   325  71.1   0.0  71.1  0.00  1.70     0.0  460.4  52.6  18.6  39.5  2.91  0.78  0.98  0.00  0.64   0.0
 1981 248   613   326  71.8   0.0  71.8  0.00  1.71     0.0  461.5  53.2  18.6  39.6  2.90  0.79  0.98  0.00  0.64   0.0
 1981 249   614   327  72.6   0.0  72.6  0.00  1.71     0.0  463.0  53.9  18.7  39.9  2.90  0.79  0.98  0.00  0.64   0.0
 1981 250   615   328  72.1   0.0  72.1  0.00  1.68     0.0  463.2  53.5  18.6  39.9  2.83  0.78  0.98  0.00  0.63   0.0
 1981 251   616   329  72.1   0.0  72.1  0.00  1.66     0.0  464.4  53.5  18.6  40.2  2.77  0.77  0.98  0.00  0.63   0.0
 1981 252   617   330  71.2   0.0  71.2  0.00  1.62     0.0  464.5  52.8  18.5  40.3  2.68  0.76  0.97  0.00  0.62   0.0
 1981 253   618   331  71.6   0.0  71.6  0.00  1.62     0.0  465.5  53.0  18.5  40.4  2.66  0.76  0.97  0.00  0.62   0.0
 1981 254   619   332  71.2   0.0  71.2  0.00  1.60     0.0  465.7  52.8  18.5  40.5  2.62  0.76  0.97  0.00  0.62   0.0
 1981 255   620   333  72.2   0.0  72.2  0.00  1.61     0.0  467.6  53.5  18.6  40.8  2.62  0.76  0.97  0.00  0.62   0.0
 1981 256   621   334  73.3   0.0  73.3  0.00  1.62     0.0  469.5  54.4  18.8  41.1  2.63  0.77  0.97  0.00  0.62   0.0
 1981 257   622   335  73.0   0.0  73.0  0.00  1.60     0.0  469.7  54.2  18.8  41.1  2.59  0.76  0.97  0.00  0.62   0.0
 1981 258   623   336  72.8   0.0  72.8  0.00  1.59     0.0  469.9  54.1  18.8  41.0  2.58  0.76  0.97  0.00  0.62   0.0
 1981 259   624   337  37.3   0.0  37.3  0.00  1.24     0.0  470.0  20.8  16.6  41.0  2.56  0.76  0.97  0.00  0.62   0.0
 1981 260   625   338  37.7   0.0  37.7  0.00  1.25     0.0  470.1  21.2  16.5  40.7  2.54  0.75  0.96  0.00  0.62   0.0
 1981 261   626   339  37.6   0.0  37.6  0.00  1.23     0.0  470.3  21.3  16.3  40.3  2.49  0.74  0.95  0.00  0.61   0.0
 1981 262   627   340  37.8   0.0  37.8  0.00  1.23     0.0  470.4  21.5  16.2  40.0  2.45  0.74  0.95  0.00  0.61   0.0
 1981 263   628   341  37.9   0.0  37.9  0.00  1.23     0.0  470.6  21.8  16.1  39.7  2.43  0.74  0.94  0.00  0.61   0.0
 1981 264   629   342  38.2   0.0  38.2  0.00  1.23     0.0  470.7  22.0  16.1  39.4  2.42  0.73  0.93  0.00  0.61   0.0
 1981 265   630   343  38.4   0.0  38.4  0.00  1.23     0.0  470.8  22.3  16.1  39.2  2.40  0.73  0.93  0.00  0.60   0.0
 1981 266   631   344  39.5   0.0  39.5  0.00  1.25     0.0  472.3  23.3  16.2  39.1  2.45  0.74  0.93  0.00  0.61   0.0
 1981 267   632   345  39.7   0.0  39.7  0.00  1.25     0.0  472.5  23.6  16.1  38.9  2.42  0.73  0.92  0.00  0.60   0.0
 1981 268   633   346  39.8   0.0  39.8  0.00  1.24     0.0  472.9  23.8  16.0  38.7  2.38  0.72  0.92  0.00  0.60   0.0
 1981 269   634   347  39.6   0.0  39.6  0.00  1.22     0.0  473.0  23.8  15.8  38.4  2.33  0.71  0.91  0.00  0.60   0.0
 1981 270   635   348  39.2   0.0  39.2  0.00  1.21     0.0  473.2  23.6  15.6  38.1  2.27  0.70  0.91  0.00  0.59   0.0
 1981 271   636   349  39.1   0.0  39.1  0.00  1.19     0.0  473.6  23.7  15.4  37.9  2.22  0.70  0.91  0.00  0.59   0.0
 1981 272   637   350  40.1   0.0  40.1  0.00  1.21     0.0  474.7  24.5  15.5  37.9  2.26  0.70  0.90  0.00  0.59   0.0
 1981 273   638   351  40.4   0.0  40.4  0.00  1.22     0.0  474.9  24.8  15.5  37.7  2.27  0.70  0.90  0.00  0.59   0.0
 1981 274   639   352  40.4   0.0  40.4  0.00  1.22     0.0  474.9  24.9  15.5  37.5  2.27  0.70  0.90  0.00  0.59   0.0
 1981 275   640   353  41.8   0.0  41.8  0.00  1.25     0.0  476.9  26.1  15.7  37.6  2.32  0.71  0.90  0.00  0.60   0.0
 1981 276   641   354  42.4   0.0  42.4  0.00  1.25     0.0  477.9  26.8  15.6  37.6  2.28  0.70  0.90  0.00  0.59   0.0
 1981 277   642   355  42.7   0.0  42.7  0.00  1.25     0.0  478.5  27.1  15.6  37.5  2.26  0.70  0.90  0.00  0.59   0.0
 1981 278   643   356  42.6   0.0  42.6  0.00  1.24     0.0  478.6  27.1  15.5  37.3  2.24  0.69  0.89  0.00  0.59   0.0
 1981 279   644   357  44.2   0.0  44.2  0.00  1.27     0.0  480.8  28.5  15.7  37.4  2.29  0.70  0.90  0.00  0.59   0.0
 1981 280   645   358  45.7   0.0  45.7  0.00  1.30     0.0  482.8  29.9  15.9  37.5  2.34  0.71  0.90  0.00  0.60   0.0
 1981 281   646   359  45.9   0.0  45.9  0.00  1.30     0.0  483.0  30.0  15.8  37.4  2.33  0.70  0.89  0.00  0.59   0.0
 1981 282   647   360  46.0   0.0  46.0  0.00  1.30     0.0  483.1  30.2  15.8  37.3  2.33  0.70  0.89  0.00  0.59   0.0
 1981 283   648   361  46.3   0.0  46.3  0.00  1.30     0.0  483.5  30.5  15.8  37.2  2.33  0.70  0.89  0.00  0.59   0.0
 1981 284   649   362  46.2   0.0  46.2  0.00  1.29     0.0  483.6  30.4  15.8  37.1  2.30  0.70  0.88  0.00  0.59   0.0
 1981 285   650   363  47.0   0.0  47.0  0.00  1.30     0.0  485.0  31.2  15.8  37.1  2.30  0.70  0.88  0.00  0.59   0.0
 1981 286   651   364  47.1   0.0  47.1  0.00  1.29     0.0  485.4  31.3  15.8  37.0  2.27  0.69  0.88  0.00  0.59   0.0
 1981 287   652   365  46.7   0.0  46.7  0.00  1.27     0.0  485.4  31.0  15.7  36.9  2.24  0.69  0.87  0.00  0.59   0.0
 1981 288   653   366  47.6   0.0  47.6  0.00  1.28     0.0  487.2  31.9  15.7  36.9  2.22  0.68  0.87  0.00  0.59   0.0
 1981 289   654   367  49.8   0.0  49.8  0.00  1.31     0.0  490.1  33.9  15.9  37.1  2.28  0.69  0.88  0.00  0.59   0.0
 1981 290   655   368  50.1   0.0  50.1  0.00  1.31     0.0  490.4  34.1  15.9  37.1  2.27  0.69  0.88  0.00  0.59   0.0
 1981 291   656   369  49.9   0.0  49.9  0.00  1.30     0.0  490.4  34.0  15.9  37.0  2.25  0.69  0.87  0.00  0.59   0.0
 1981 292   657   370  50.0   0.0  50.0  0.00  1.30     0.0  491.1  34.2  15.9  36.9  2.23  0.68  0.87  0.00  0.59   0.0
 1981 293   658   371  49.5   0.0  49.5  0.00  1.28     0.0  491.1  33.8  15.7  36.8  2.19  0.67  0.86  0.00  0.59   0.0
 1981 294   659   372  49.1   0.0  49.1  0.00  1.26     0.0  491.4  33.5  15.6  36.7  2.16  0.67  0.86  0.00  0.58   0.0
 1981 295   660   373  48.6   0.0  48.6  0.00  1.24     0.0  491.4  33.1  15.5  36.5  2.12  0.66  0.86  0.00  0.58   0.0
 1981 296   661   374  48.1   0.0  48.1  0.00  1.22     0.0  491.5  32.7  15.4  36.4  2.09  0.65  0.85  0.00  0.58   0.0
 1981 297   662   375  49.1   0.0  49.1  0.00  1.23     0.0  493.5  33.6  15.5  36.4  2.08  0.65  0.85  0.00  0.58   0.0
 1981 298   663   376  48.3   0.0  48.3  0.00  1.20     0.0  493.5  33.0  15.3  36.3  2.02  0.64  0.85  0.00  0.58   0.0
 1981 299   664   377  48.0   0.0  48.0  0.00  1.19     0.0  493.7  32.7  15.2  36.1  1.99  0.64  0.85  0.00  0.57   0.0
 1981 300   665   378  47.6   0.0  47.6  0.00  1.18     0.0  494.1  32.5  15.1  36.0  1.96  0.63  0.85  0.00  0.57   0.0
 1981 301   666   379  46.8   0.0  46.8  0.00  1.15     0.0  494.1  31.8  15.0  35.8  1.91  0.62  0.84  0.00  0.57   0.0
 1981 302   667   380  46.1   0.0  46.1  0.00  1.13     0.0  494.3  31.2  14.9  35.7  1.86  0.62  0.84  0.00  0.56   0.0
 1981 303   668   381  46.1   0.0  46.1  0.00  1.12     0.0  495.6  31.3  14.9  35.6  1.83  0.62  0.84  0.00  0.56   0.0
 1981 304   669   382  45.4   0.0  45.4  0.00  1.09     0.0  495.7  30.6  14.7  35.4  1.78  0.61  0.84  0.00  0.56   0.0
 1981 305   670   383  45.7   0.0  45.7  0.00  1.09     0.0  497.1  30.9  14.8  35.3  1.75  0.61  0.84  0.00  0.56   0.0
 1981 306   671   384  45.6   0.0  45.6  0.00  1.08     0.0  497.6  30.8  14.8  35.2  1.73  0.61  0.84  0.00  0.56   0.0
 1981 307   672   385  47.6   0.0  47.6  0.00  1.11     0.0  500.5  32.4  15.2  35.3  1.77  0.62  0.84  0.00  0.56   0.0
 1981 308   673   386  47.1   0.0  47.1  0.00  1.09     0.0  500.7  31.9  15.1  35.2  1.74  0.61  0.84  0.00  0.55   0.0
 1981 309   674   387  46.6   0.0  46.6  0.00  1.08     0.0  500.9  31.5  15.1  35.0  1.71  0.61  0.84  0.00  0.55   0.0
 1981 310   675   388  46.2   0.0  46.2  0.00  1.07     0.0  501.2  31.2  15.1  34.9  1.68  0.61  0.84  0.00  0.55   0.0
 1981 311   676   389  45.8   0.0  45.8  0.00  1.05     0.0  501.4  30.8  15.0  34.8  1.66  0.60  0.84  0.00  0.55   0.0
 1981 312   677   390  45.5   0.0  45.5  0.00  1.04     0.0  501.8  30.5  15.0  34.7  1.64  0.60  0.84  0.00  0.55   0.0
 1981 313   678   391  44.8   0.0  44.8  0.00  1.02     0.0  502.0  29.9  14.9  34.5  1.60  0.59  0.83  0.00  0.54   0.0
 1981 314   679   392  46.4   0.0  46.4  0.00  1.04     0.0  504.4  31.0  15.4  34.5  1.62  0.60  0.83  0.00  0.55   0.0
 1981 315   680   393  27.3   0.0  27.3  0.00  0.91     0.0  507.9  13.6  13.7  34.7  1.68  0.62  0.84  0.00  0.55   0.0
 1981 316   681   394  29.1   0.0  29.1  0.00  0.96     0.0  509.9  15.4  13.7  34.5  1.80  0.63  0.84  0.00  0.55   0.0
 1981 317   682   395  31.3   0.0  31.3  0.00  1.01     0.0  512.5  17.5  13.8  34.4  1.94  0.63  0.85  0.00  0.55   0.0
 1981 318   683   396  33.7   0.0  33.7  0.00  1.07     0.0  515.2  19.8  13.9  34.2  2.06  0.63  0.85  0.00  0.55   0.0
 1981 319   684   397  36.3   0.0  36.3  0.00  1.12     0.0  518.3  22.2  14.1  34.2  2.17  0.64  0.85  0.00  0.55   0.0
 1981 320   685   398  39.0   0.0  39.0  0.00  1.18     0.0  521.5  24.7  14.3  34.2  2.27  0.64  0.85  0.00  0.55   0.0
 1981 321   686   399  42.0   0.0  42.0  0.00  1.24     0.0  525.2  27.5  14.5  34.2  2.37  0.65  0.86  0.00  0.55   0.0
 1981 322   687   400  44.3   0.0  44.3  0.00  1.28     0.0  528.0  29.6  14.7  34.2  2.43  0.66  0.86  0.00  0.55   0.0
 1981 323   688   401  47.3   0.0  47.3  0.00  1.34     0.0  531.9  32.4  15.0  34.3  2.51  0.67  0.86  0.00  0.56   0.0
 1981 324   689   402  50.2   0.0  50.2  0.00  1.39     0.0  535.4  35.0  15.2  34.4  2.57  0.67  0.86  0.00  0.56   0.0
 1981 325   690   403  53.6   0.0  53.6  0.00  1.44     0.0  539.8  38.1  15.5  34.6  2.63  0.68  0.87  0.00  0.56   0.0
 1981 326   691   404  57.1   0.0  57.1  0.00  1.49     0.0  544.4  41.3  15.9  34.8  2.69  0.69  0.87  0.00  0.56   0.0
 1981 327   692   405  60.3   0.0  60.3  0.00  1.54     0.0  548.7  44.2  16.2  34.9  2.73  0.70  0.87  0.00  0.57   0.0
 1981 328   693   406  63.9   0.0  63.9  0.00  1.58     0.0  553.6  47.4  16.5  35.2  2.77  0.71  0.87  0.00  0.57   0.0
 1981 329   694   407  67.4   0.0  67.4  0.00  1.63     0.0  558.2  50.5  16.9  35.5  2.80  0.72  0.88  0.00  0.57   0.0
 1981 330   695   408  70.9   0.0  70.9  0.00  1.67     0.0  562.9  53.6  17.3  35.8  2.84  0.73  0.88  0.00  0.58   0.0
 1981 331   696   409  74.4   0.0  74.4  0.00  1.70     0.0  567.6  56.7  17.7  36.1  2.86  0.74  0.88  0.00  0.58   0.0
 1981 332   697   410  75.9   0.0  75.9  0.00  1.71     0.0  570.2  58.0  17.9  36.2  2.85  0.75  0.88  0.00  0.58   0.0
 1981 333   698   411  79.2   0.0  79.2  0.00  1.74     0.0  575.2  60.9  18.3  36.6  2.87  0.76  0.89  0.00  0.58   0.0
 1981 334   699   412  81.6   0.0  81.6  0.00  1.76     0.0  578.9  63.0  18.6  36.8  2.86  0.76  0.89  0.00  0.58   0.0
 1981 335   700   413  85.4   0.0  85.4  0.00  1.79     0.0  584.5  66.3  19.1  37.2  2.88  0.78  0.90  0.00  0.59   0.0
 1981 336   701   414  88.7   0.0  88.7  0.00  1.82     0.0  589.2  69.2  19.5  37.5  2.89  0.79  0.90  0.00  0.59   0.0
 1981 337   702   415  91.9   0.0  91.9  0.00  1.84     0.0  593.6  71.9  19.9  37.8  2.90  0.79  0.90  0.00  0.60   0.0
 1981 338   703   416  95.2   0.0  95.2  0.00  1.86     0.0  598.6  74.8  20.3  38.2  2.91  0.80  0.90  0.00  0.60   0.0
 1981 339   704   417  96.3   0.0  96.3  0.00  1.86     0.0  601.2  75.8  20.5  38.3  2.87  0.80  0.91  0.00  0.60   0.0
 1981 340   705   418 100.5   0.0 100.5  0.00  1.89     0.0  608.0  79.3  21.2  38.9  2.88  0.82  0.92  0.00  0.61   0.0
 1981 341   706   419 104.3   0.0 104.3  0.00  1.91     0.0  613.6  82.5  21.8  39.3  2.89  0.84  0.92  0.00  0.61   0.0
 1981 342   707   420 108.3   0.0 108.3  0.00  1.93     0.0  619.4  85.8  22.4  39.7  2.90  0.85  0.93  0.00  0.62   0.0
 1981 343   708   421  42.4   0.0  42.4  0.00  1.41     0.0  625.2  23.5  18.9  40.1  2.90  0.86  0.93  0.00  0.62   0.0
 1981 344   709   422  45.2   0.0  45.2  0.00  1.47     0.0  628.2  26.3  18.9  39.8  2.97  0.86  0.93  0.00  0.62   0.0
 1981 345   710   423  48.6   0.0  48.6  0.00  1.53     0.0  631.9  29.6  19.0  39.6  3.03  0.86  0.93  0.00  0.62   0.0
 1981 346   711   424  52.1   0.0  52.1  0.00  1.58     0.0  635.9  33.1  19.0  39.4  3.09  0.86  0.93  0.00  0.62   0.0
 1981 347   712   425  55.8   0.0  55.8  0.00  1.64     0.0  640.2  36.7  19.1  39.3  3.12  0.85  0.93  0.00  0.62   0.0
 1981 348   713   426  59.1   0.0  59.1  0.00  1.68     0.0  644.1  39.9  19.1  39.2  3.13  0.85  0.93  0.00  0.61   0.0
 1981 349   714   427  62.2   0.0  62.2  0.00  1.71     0.0  648.2  43.0  19.2  39.2  3.14  0.85  0.93  0.00  0.61   0.0
 1981 350   715   428  66.1   0.0  66.1  0.00  1.76     0.0  653.3  46.7  19.5  39.3  3.16  0.85  0.93  0.00  0.62   0.0
 1981 351   716   429  70.0   0.0  70.0  0.00  1.80     0.0  658.4  50.3  19.7  39.5  3.17  0.85  0.93  0.00  0.62   0.0
 1981 352   717   430  73.1   0.0  73.1  0.00  1.82     0.0  662.6  53.3  19.8  39.6  3.15  0.85  0.93  0.00  0.61   0.0
 1981 353   718   431  75.4   0.0  75.4  0.00  1.83     0.0  666.1  55.6  19.8  39.7  3.13  0.85  0.94  0.00  0.61   0.0
 1981 354   719   432  77.9   0.0  77.9  0.00  1.84     0.0  670.1  58.0  19.9  39.8  3.10  0.85  0.94  0.00  0.61   0.0
 1981 355   720   433  80.7   0.0  80.7  0.00  1.86     0.0  674.4  60.5  20.2  40.0  3.09  0.85  0.94  0.00  0.61   0.0
 1981 356   721   434  83.0   0.0  83.0  0.00  1.88     0.0  677.7  62.6  20.4  40.2  3.09  0.85  0.94  0.00  0.61   0.0
 1981 357   722   435  86.6   0.0  86.6  0.00  1.91     0.0  682.6  65.9  20.7  40.4  3.09  0.86  0.94  0.00  0.61   0.0
 1981 358   723   436  85.8   0.0  85.8  0.00  1.85     0.0  683.0  65.3  20.5  40.3  2.99  0.84  0.94  0.00  0.61   0.0
 1981 359   724   437  84.5   0.0  84.5  0.00  1.81     0.0  683.3  64.2  20.3  40.2  2.89  0.83  0.94  0.00  0.60   0.0
 1981 360   725   438  83.4   0.0  83.4  0.00  1.76     0.0  684.0  63.4  20.0  40.1  2.78  0.81  0.94  0.00  0.60   0.0
 1981 361   726   439  81.9   0.0  81.9  0.00  1.71     0.0  684.3  62.2  19.7  40.0  2.68  0.80  0.94  0.00  0.59   0.0
 1981 362   727   440  80.8   0.0  80.8  0.00  1.67     0.0  684.9  61.3  19.5  39.9  2.59  0.79  0.94  0.00  0.59   0.0
 1981 363   728   441  79.6   0.0  79.6  0.00  1.63     0.0  685.4  60.3  19.2  39.8  2.50  0.78  0.94  0.00  0.58   0.0
 1981 364   729   442  78.9   0.0  78.9  0.00  1.59     0.0  686.4  59.8  19.1  39.7  2.42  0.77  0.94  0.00  0.58   0.0
 1981 365   730   443  79.2   0.0  79.2  0.00  1.58     0.0  687.7  60.1  19.2  39.7  2.38  0.77  0.94  0.00  0.58   0.0
 1982 001   731   444  78.6   0.0  78.6  0.00  1.55     0.0  688.1  59.5  19.1  39.6  2.33  0.76  0.93  0.00  0.57   0.0
 1982 002   732   445  78.1   0.0  78.1  0.00  1.53     0.0  688.9  59.1  19.0  39.5  2.29  0.75  0.93  0.00  0.57   0.0
 1982 003   733   446  77.6   0.0  77.6  0.00  1.50     0.0  689.6  58.6  18.9  39.4  2.25  0.74  0.93  0.00  0.57   0.0
 1982 004   734   447  76.6   0.0  76.6  0.00  1.47     0.0  689.9  57.8  18.8  39.3  2.19  0.73  0.92  0.00  0.57   0.0
 1982 005   735   448  77.4   0.0  77.4  0.00  1.46     0.0  692.5  58.4  19.0  39.3  2.15  0.73  0.92  0.00  0.57   0.0
 1982 006   736   449  34.4   0.0  34.4  0.00  1.15     0.0  698.5  17.8  16.5  39.6  2.20  0.75  0.93  0.00  0.58   0.0
 1982 007   737   450  35.7   0.0  35.7  0.00  1.17     0.0  699.6  19.3  16.4  39.1  2.26  0.75  0.93  0.00  0.57   0.0
 1982 008   738   451  37.7   0.0  37.7  0.00  1.22     0.0  701.8  21.3  16.4  38.8  2.35  0.75  0.93  0.00  0.57   0.0
 1982 009   739   452  40.5   0.0  40.5  0.00  1.27     0.0  704.8  24.0  16.5  38.5  2.46  0.75  0.92  0.00  0.57   0.0
 1982 010   740   453  43.8   0.0  43.8  0.00  1.34     0.0  708.6  27.2  16.6  38.3  2.56  0.75  0.93  0.00  0.57   0.0
 1982 011   741   454  47.1   0.0  47.1  0.00  1.40     0.0  712.5  30.4  16.8  38.2  2.65  0.75  0.93  0.00  0.57   0.0
 1982 012   742   455  50.4   0.0  50.4  0.00  1.46     0.0  716.3  33.5  17.0  38.2  2.72  0.76  0.92  0.00  0.57   0.0
 1982 013   743   456  53.9   0.0  53.9  0.00  1.51     0.0  720.5  36.7  17.2  38.2  2.78  0.76  0.93  0.00  0.57   0.0
 1982 014   744   457  57.6   0.0  57.6  0.00  1.56     0.0  725.1  40.1  17.4  38.2  2.83  0.77  0.93  0.00  0.58   0.0
 1982 015   745   458  59.3   0.0  59.3  0.00  1.55     0.0  727.5  41.9  17.4  38.2  2.72  0.76  0.92  0.00  0.57   0.0
 1982 016   746   459  58.6   0.0  58.6  0.00  1.51     0.0  727.7  41.4  17.2  38.0  2.63  0.75  0.92  0.00  0.57   0.0
 1982 017   747   460  57.8   0.0  57.8  0.00  1.48     0.0  727.7  40.9  17.0  37.8  2.54  0.74  0.92  0.00  0.56   0.0
 1982 018   748   461  56.7   0.0  56.7  0.00  1.44     0.0  727.7  40.0  16.7  37.6  2.46  0.72  0.91  0.00  0.56   0.0
 1982 019   749   462  55.7   0.0  55.7  0.00  1.41     0.0  727.7  39.2  16.5  37.4  2.39  0.71  0.90  0.00  0.56   0.0
 1982 020   750   463  54.5   0.0  54.5  0.00  1.37     0.0  727.7  38.3  16.2  37.1  2.31  0.70  0.90  0.00  0.55   0.0
 1982 021   751   464  53.4   0.0  53.4  0.00  1.34     0.0  727.7  37.4  16.0  36.9  2.24  0.69  0.90  0.00  0.55   0.0
 1982 022   752   465  53.4   0.0  53.4  0.00  1.32     0.0  728.7  37.5  15.9  36.8  2.19  0.68  0.90  0.00  0.55   0.0
 1982 023   753   466  52.6   0.0  52.6  0.00  1.30     0.0  728.7  36.9  15.7  36.6  2.15  0.67  0.89  0.00  0.55   0.0
 1982 024   754   467  51.6   0.0  51.6  0.00  1.26     0.0  728.7  36.1  15.5  36.4  2.09  0.66  0.89  0.00  0.54   0.0
 1982 025   755   468  50.6   0.0  50.6  0.00  1.23     0.0  728.8  35.3  15.3  36.2  2.03  0.65  0.89  0.00  0.54   0.0
 1982 026   756   469  49.5   0.0  49.5  0.00  1.20     0.0  728.8  34.4  15.1  35.9  1.98  0.64  0.88  0.00  0.54   0.0
 1982 027   757   470  48.5   0.0  48.5  0.00  1.17     0.0  728.8  33.5  14.9  35.7  1.92  0.63  0.88  0.00  0.54   0.0
 1982 028   758   471  47.5   0.0  47.5  0.00  1.15     0.0  728.8  32.7  14.7  35.5  1.86  0.62  0.88  0.00  0.54   0.0
 1982 029   759   472  47.5   0.0  47.5  0.00  1.14     0.0  729.9  32.9  14.7  35.3  1.84  0.62  0.88  0.00  0.54   0.0
 1982 030   760   473  46.8   0.0  46.8  0.00  1.12     0.0  729.9  32.2  14.5  35.1  1.80  0.61  0.88  0.00  0.53   0.0
 1982 031   761   474  46.4   0.0  46.4  0.00  1.11     0.0  730.5  32.0  14.4  34.9  1.76  0.61  0.88  0.00  0.53   0.0
 1982 032   762   475  46.1   0.0  46.1  0.00  1.09     0.0  730.9  31.7  14.4  34.7  1.73  0.61  0.88  0.00  0.53   0.0
 1982 033   763   476  46.4   0.0  46.4  0.00  1.09     0.0  732.0  31.9  14.4  34.6  1.71  0.61  0.88  0.00  0.53   0.0
 1982 034   764   477  27.4   0.0  27.4  0.00  0.91     0.0  733.7  14.0  13.4  34.6  1.73  0.61  0.89  0.00  0.53   0.0
 1982 035   765   478  29.0   0.0  29.0  0.00  0.96     0.0  735.3  15.6  13.4  34.3  1.84  0.61  0.89  0.00  0.53   0.0
 1982 036   766   479  31.0   0.0  31.0  0.00  1.00     0.0  737.5  17.4  13.5  34.1  1.95  0.62  0.89  0.00  0.53   0.0
 1982 037   767   480  33.2   0.0  33.2  0.00  1.06     0.0  740.0  19.6  13.6  34.0  2.06  0.62  0.89  0.00  0.53   0.0
 1982 038   768   481  35.7   0.0  35.7  0.00  1.11     0.0  743.0  22.0  13.7  33.9  2.18  0.62  0.89  0.00  0.53   0.0
 1982 039   769   482  37.5   0.0  37.5  0.00  1.15     0.0  745.3  23.8  13.7  33.7  2.24  0.62  0.89  0.00  0.53   0.0
 1982 040   770   483  38.5   0.0  38.5  0.00  1.17     0.0  746.5  24.8  13.7  33.5  2.26  0.62  0.89  0.00  0.53   0.0
 1982 041   771   484  40.5   0.0  40.5  0.00  1.21     0.0  749.4  26.7  13.8  33.5  2.32  0.63  0.90  0.00  0.54   0.0
 1982 042   772   485  42.5   0.0  42.5  0.00  1.25     0.0  752.0  28.5  13.9  33.5  2.37  0.63  0.90  0.00  0.54   0.0
 1982 043   773   486  45.0   0.0  45.0  0.00  1.29     0.0  755.6  30.9  14.1  33.6  2.43  0.64  0.90  0.00  0.54   0.0
 1982 044   774   487  47.2   0.0  47.2  0.00  1.33     0.0  758.7  32.9  14.3  33.7  2.47  0.64  0.91  0.00  0.54   0.0
 1982 045   775   488  49.7   0.0  49.7  0.00  1.37     0.0  762.3  35.2  14.5  33.9  2.52  0.65  0.91  0.00  0.54   0.0
 1982 046   776   489  51.8   0.0  51.8  0.00  1.40     0.0  765.4  37.1  14.7  34.1  2.55  0.66  0.91  0.00  0.54   0.0
 1982 047   777   490  54.1   0.0  54.1  0.00  1.43     0.0  769.0  39.2  14.9  34.4  2.57  0.66  0.92  0.00  0.54   0.0
 1982 048   778   491  55.1   0.0  55.1  0.00  1.43     0.0  770.9  40.1  15.0  34.5  2.51  0.66  0.92  0.00  0.54   0.0
 1982 049   779   492  56.1   0.0  56.1  0.00  1.44     0.0  772.9  41.0  15.1  34.6  2.51  0.67  0.92  0.00  0.54   0.0
 1982 050   780   493  55.8   0.0  55.8  0.00  1.41     0.0  773.5  40.8  15.0  34.7  2.44  0.66  0.92  0.00  0.54   0.0
 1982 051   781   494  55.1   0.0  55.1  0.00  1.39     0.0  773.9  40.2  14.9  34.6  2.37  0.65  0.92  0.00  0.53   0.0
 1982 052   782   495  55.0   0.0  55.0  0.00  1.37     0.0  774.8  40.1  14.9  34.7  2.31  0.65  0.92  0.00  0.53   0.0
 1982 053   783   496  54.4   0.0  54.4  0.00  1.34     0.0  775.2  39.6  14.8  34.6  2.25  0.64  0.91  0.00  0.53   0.0
 1982 054   784   497  53.6   0.0  53.6  0.00  1.31     0.0  775.5  38.9  14.7  34.5  2.20  0.64  0.91  0.00  0.53   0.0
 1982 055   785   498  53.2   0.0  53.2  0.00  1.30     0.0  776.1  38.6  14.7  34.5  2.15  0.63  0.91  0.00  0.53   0.0
 1982 056   786   499  52.6   0.0  52.6  0.00  1.27     0.0  776.4  38.0  14.6  34.4  2.10  0.63  0.90  0.00  0.53   0.0
 1982 057   787   500  52.1   0.0  52.1  0.00  1.25     0.0  777.0  37.5  14.6  34.4  2.06  0.62  0.90  0.00  0.53   0.0
 1982 058   788   501  51.9   0.0  51.9  0.00  1.24     0.0  777.9  37.3  14.6  34.5  2.01  0.62  0.90  0.00  0.52   0.0
 1982 059   789   502  51.9   0.0  51.9  0.00  1.22     0.0  779.0  37.3  14.7  34.5  1.96  0.62  0.90  0.00  0.52   0.0
 1982 060   790   503  51.3   0.0  51.3  0.00  1.20     0.0  779.5  36.7  14.6  34.5  1.91  0.62  0.90  0.00  0.52   0.0
 1982 061   791   504  50.8   0.0  50.8  0.00  1.18     0.0  779.9  36.2  14.6  34.5  1.88  0.62  0.90  0.00  0.52   0.0
 1982 062   792   505  29.5   0.0  29.5  0.00  0.98     0.0  783.6  15.6  13.8  34.8  1.93  0.63  0.91  0.00  0.53   0.0
 1982 063   793   506  30.9   0.0  30.9  0.00  1.02     0.0  785.2  17.1  13.9  34.6  2.01  0.63  0.90  0.00  0.53   0.0
 1982 064   794   507  32.1   0.0  32.1  0.00  1.05     0.0  786.6  18.3  13.9  34.4  2.07  0.63  0.90  0.00  0.53   0.0
 1982 065   795   508  33.9   0.0  33.9  0.00  1.09     0.0  788.9  20.0  13.9  34.4  2.16  0.63  0.91  0.00  0.53   0.0
 1982 066   796   509  35.9   0.0  35.9  0.00  1.13     0.0  791.4  21.9  14.0  34.4  2.24  0.64  0.91  0.00  0.53   0.0
 1982 067   797   510  37.8   0.0  37.8  0.00  1.17     0.0  794.0  23.7  14.1  34.4  2.31  0.64  0.91  0.00  0.53   0.0
 1982 068   798   511  39.8   0.0  39.8  0.00  1.21     0.0  796.7  25.6  14.2  34.5  2.37  0.64  0.91  0.00  0.53   0.0
 1982 069   799   512  41.7   0.0  41.7  0.00  1.24     0.0  799.5  27.4  14.3  34.6  2.42  0.64  0.92  0.00  0.53   0.0
 1982 070   800   513  43.6   0.0  43.6  0.00  1.28     0.0  802.2  29.2  14.4  34.8  2.46  0.65  0.92  0.00  0.53   0.0
 1982 071   801   514  45.4   0.0  45.4  0.00  1.31     0.0  805.1  30.9  14.5  35.0  2.50  0.65  0.93  0.00  0.53   0.0
 1982 072   802   515  47.2   0.0  47.2  0.00  1.34     0.0  807.9  32.6  14.7  35.2  2.53  0.66  0.93  0.00  0.53   0.0
 1982 073   803   516  48.7   0.0  48.7  0.00  1.36     0.0  810.3  33.9  14.8  35.4  2.54  0.66  0.93  0.00  0.53   0.0
 1982 074   804   517  50.2   0.0  50.2  0.00  1.38     0.0  812.9  35.3  14.9  35.7  2.56  0.66  0.94  0.00  0.53   0.0
 1982 075   805   518  51.9   0.0  51.9  0.00  1.41     0.0  815.8  36.8  15.1  36.0  2.58  0.67  0.94  0.00  0.54   0.0
 1982 076   806   519  53.4   0.0  53.4  0.00  1.42     0.0  818.6  38.2  15.2  36.4  2.58  0.67  0.95  0.00  0.54   0.0
 1982 077   807   520  54.9   0.0  54.9  0.00  1.44     0.0  821.3  39.5  15.4  36.8  2.59  0.67  0.95  0.00  0.54   0.0
 1982 078   808   521  55.9   0.0  55.9  0.00  1.44     0.0  823.4  40.4  15.5  37.1  2.56  0.67  0.95  0.00  0.54   0.0
 1982 079   809   522  56.5   0.0  56.5  0.00  1.43     0.0  825.0  40.9  15.5  37.3  2.51  0.67  0.95  0.00  0.54   0.0
 1982 080   810   523  57.8   0.0  57.8  0.00  1.45     0.0  827.7  42.1  15.7  37.7  2.52  0.68  0.96  0.00  0.54   0.0
 1982 081   811   524  57.1   0.0  57.1  0.00  1.42     0.0  828.1  41.5  15.6  37.8  2.44  0.67  0.95  0.00  0.54   0.0
 1982 082   812   525  57.5   0.0  57.5  0.00  1.41     0.0  829.6  41.9  15.6  38.0  2.39  0.67  0.95  0.00  0.53   0.0
 1982 083   813   526  57.0   0.0  57.0  0.00  1.38     0.0  830.1  41.4  15.6  38.2  2.32  0.66  0.95  0.00  0.53   0.0
 1982 084   814   527  56.9   0.0  56.9  0.00  1.36     0.0  831.3  41.3  15.6  38.3  2.27  0.66  0.95  0.00  0.53   0.0
 1982 085   815   528  56.3   0.0  56.3  0.00  1.33     0.0  831.7  40.7  15.6  38.4  2.20  0.66  0.95  0.00  0.53   0.0
 1982 086   816   529  56.8   0.0  56.8  0.00  1.34     0.0  833.3  41.1  15.7  38.6  2.20  0.66  0.95  0.00  0.53   0.0
 1982 087   817   530  56.7   0.0  56.7  0.00  1.33     0.0  833.7  40.9  15.7  38.6  2.17  0.66  0.95  0.00  0.53   0.0
 1982 088   818   531  56.5   0.0  56.5  0.00  1.32     0.0  834.3  40.8  15.7  38.6  2.14  0.66  0.95  0.00  0.53   0.0
 1982 089   819   532  56.1   0.0  56.1  0.00  1.30     0.0  834.7  40.4  15.7  38.6  2.10  0.65  0.95  0.00  0.53   0.0
 1982 090   820   533  31.8   0.0  31.8  0.00  1.06     0.0  837.5  17.2  14.6  39.0  2.13  0.67  0.95  0.00  0.53   0.0
 1982 091   821   534  32.9   0.0  32.9  0.00  1.09     0.0  838.8  18.4  14.5  38.8  2.18  0.66  0.95  0.00  0.53   0.0
 1982 092   822   535  34.3   0.0  34.3  0.00  1.12     0.0  840.5  19.7  14.5  38.6  2.24  0.66  0.95  0.00  0.53   0.0
 1982 093   823   536  34.9   0.0  34.9  0.00  1.13     0.0  841.3  20.4  14.5  38.3  2.26  0.66  0.95  0.00  0.53   0.0
 1982 094   824   537  35.8   0.0  35.8  0.00  1.14     0.0  842.4  21.3  14.4  38.1  2.29  0.66  0.95  0.00  0.53   0.0
 1982 095   825   538  37.1   0.0  37.1  0.00  1.17     0.0  844.3  22.6  14.5  38.1  2.34  0.66  0.95  0.00  0.53   0.0
 1982 096   826   539  38.4   0.0  38.4  0.00  1.20     0.0  846.1  23.9  14.5  38.1  2.38  0.66  0.95  0.00  0.53   0.0
 1982 097   827   540  39.6   0.0  39.6  0.00  1.22     0.0  847.8  25.1  14.5  38.1  2.41  0.66  0.95  0.00  0.53   0.0
 1982 098   828   541  40.9   0.0  40.9  0.00  1.25     0.0  849.7  26.3  14.6  38.1  2.45  0.66  0.95  0.00  0.54   0.0
 1982 099   829   542  42.2   0.0  42.2  0.00  1.27     0.0  851.6  27.5  14.7  38.2  2.48  0.66  0.95  0.00  0.54   0.0
 1982 100   830   543  43.5   0.0  43.5  0.00  1.29     0.0  853.5  28.7  14.8  38.2  2.50  0.67  0.95  0.00  0.54   0.0
 1982 101   831   544  44.7   0.0  44.7  0.00  1.31     0.0  855.4  29.9  14.8  38.4  2.52  0.67  0.96  0.00  0.54   0.0
 1982 102   832   545  45.8   0.0  45.8  0.00  1.33     0.0  857.3  31.0  14.9  38.5  2.54  0.67  0.96  0.00  0.54   0.0
 1982 103   833   546  46.7   0.0  46.7  0.00  1.34     0.0  859.0  31.8  14.9  38.6  2.54  0.67  0.96  0.00  0.54   0.0
 1982 104   834   547  47.3   0.0  47.3  0.00  1.35     0.0  860.0  32.3  14.9  38.6  2.54  0.67  0.96  0.00  0.54   0.0
 1982 105   835   548  48.5   0.0  48.5  0.00  1.37     0.0  862.1  33.5  15.1  38.8  2.56  0.67  0.96  0.00  0.54   0.0
 1982 106   836   549  49.1   0.0  49.1  0.00  1.38     0.0  862.9  34.0  15.1  38.8  2.57  0.67  0.96  0.00  0.54   0.0
 1982 107   837   550  50.1   0.0  50.1  0.00  1.39     0.0  864.5  34.9  15.2  39.0  2.59  0.68  0.96  0.00  0.54   0.0
 1982 108   838   551  51.2   0.0  51.2  0.00  1.41     0.0  866.3  35.9  15.3  39.2  2.59  0.68  0.96  0.00  0.54   0.0
 1982 109   839   552  52.2   0.0  52.2  0.00  1.42     0.0  868.1  36.8  15.4  39.4  2.60  0.68  0.97  0.00  0.54   0.0
 1982 110   840   553  52.6   0.0  52.6  0.00  1.42     0.0  869.3  37.1  15.4  39.5  2.58  0.68  0.97  0.00  0.54   0.0
 1982 111   841   554  53.0   0.0  53.0  0.00  1.41     0.0  870.3  37.6  15.4  39.6  2.54  0.68  0.97  0.00  0.54   0.0
 1982 112   842   555  53.5   0.0  53.5  0.00  1.41     0.0  871.4  38.0  15.5  39.7  2.51  0.68  0.97  0.00  0.54   0.0
 1982 113   843   556  54.5   0.0  54.5  0.00  1.42     0.0  873.3  38.9  15.6  39.9  2.52  0.68  0.97  0.00  0.54   0.0
 1982 114   844   557  54.8   0.0  54.8  0.00  1.41     0.0  874.4  39.2  15.6  40.1  2.48  0.68  0.97  0.00  0.54   0.0
 1982 115   845   558  54.4   0.0  54.4  0.00  1.39     0.0  874.6  38.8  15.5  40.1  2.42  0.67  0.97  0.00  0.54   0.0
 1982 116   846   559  54.1   0.0  54.1  0.00  1.38     0.0  875.2  38.6  15.5  40.1  2.37  0.67  0.96  0.00  0.54   0.0
 1982 117   847   560  53.9   0.0  53.9  0.00  1.36     0.0  875.4  38.4  15.5  40.1  2.33  0.67  0.96  0.00  0.54   0.0
 1982 118   848   561  54.3   0.0  54.3  0.00  1.36     0.0  876.5  38.7  15.5  40.2  2.32  0.67  0.96  0.00  0.54   0.0
 1982 119   849   562  53.8   0.0  53.8  0.00  1.34     0.0  876.7  38.4  15.5  40.2  2.28  0.67  0.96  0.00  0.53   0.0
 1982 120   850   563  54.2   0.0  54.2  0.00  1.34     0.0  877.8  38.7  15.5  40.3  2.26  0.67  0.96  0.00  0.53   0.0
 1982 121   851   564  53.8   0.0  53.8  0.00  1.32     0.0  878.0  38.3  15.5  40.3  2.22  0.66  0.96  0.00  0.53   0.0
 1982 122   852   565  53.6   0.0  53.6  0.00  1.31     0.0  878.5  38.1  15.5  40.3  2.18  0.66  0.96  0.00  0.53   0.0
 1982 123   853   566  53.4   0.0  53.4  0.00  1.30     0.0  878.7  38.0  15.5  40.3  2.16  0.66  0.96  0.00  0.53   0.0
 1982 124   854   567  53.4   0.0  53.4  0.00  1.30     0.0  879.2  37.9  15.5  40.3  2.14  0.66  0.96  0.00  0.53   0.0
 1982 125   855   568  53.1   0.0  53.1  0.00  1.28     0.0  879.4  37.6  15.5  40.2  2.12  0.66  0.96  0.00  0.53   0.0
 1982 126   856   569  52.9   0.0  52.9  0.00  1.27     0.0  879.8  37.4  15.5  40.2  2.08  0.65  0.95  0.00  0.53   0.0
 1982 127   857   570  52.5   0.0  52.5  0.00  1.26     0.0  880.0  37.1  15.5  40.2  2.05  0.65  0.95  0.00  0.53   0.0
 1982 128   858   571  52.4   0.0  52.4  0.00  1.25     0.0  880.4  36.9  15.5  40.2  2.03  0.65  0.95  0.00  0.53   0.0
 1982 129   859   572  52.9   0.0  52.9  0.00  1.26     0.0  881.6  37.2  15.7  40.3  2.03  0.66  0.96  0.00  0.53   0.0
 1982 130   860   573  52.7   0.0  52.7  0.00  1.24     0.0  881.9  37.0  15.7  40.3  2.00  0.66  0.96  0.00  0.53   0.0
 1982 131   861   574  52.3   0.0  52.3  0.00  1.23     0.0  882.2  36.6  15.7  40.2  1.97  0.65  0.95  0.00  0.53   0.0
 1982 132   862   575  52.9   0.0  52.9  0.00  1.24     0.0  883.6  37.0  15.9  40.4  1.98  0.66  0.96  0.00  0.53   0.0
 1982 133   863   576  52.5   0.0  52.5  0.00  1.22     0.0  883.8  36.6  15.9  40.3  1.94  0.66  0.96  0.00  0.53   0.0
 1982 134   864   577  52.8   0.0  52.8  0.00  1.22     0.0  884.6  36.8  16.0  40.4  1.95  0.66  0.96  0.00  0.53   0.0
 1982 135   865   578  52.8   0.0  52.8  0.00  1.22     0.0  884.9  36.8  16.1  40.4  1.93  0.66  0.96  0.00  0.53   0.0
 1982 136   866   579  52.7   0.0  52.7  0.00  1.21     0.0  885.1  36.6  16.1  40.3  1.92  0.66  0.95  0.00  0.53   0.0
 1982 137   867   580  52.3   0.0  52.3  0.00  1.20     0.0  885.4  36.2  16.1  40.3  1.89  0.66  0.95  0.00  0.53   0.0
 1982 138   868   581  52.3   0.0  52.3  0.00  1.19     0.0  885.7  36.1  16.2  40.3  1.87  0.66  0.95  0.00  0.53   0.0
 1982 139   869   582  52.9   0.0  52.9  0.00  1.20     0.0  886.7  36.5  16.4  40.4  1.88  0.67  0.95  0.00  0.53   0.0
 1982 140   870   583  52.9   0.0  52.9  0.00  1.20     0.0  886.9  36.5  16.4  40.3  1.88  0.67  0.95  0.00  0.53   0.0
 1982 141   871   584  53.1   0.0  53.1  0.00  1.20     0.0  887.3  36.7  16.5  40.3  1.87  0.67  0.95  0.00  0.53   0.0
 1982 142   872   585  53.1   0.0  53.1  0.00  1.20     0.0  887.3  36.6  16.5  40.3  1.87  0.67  0.95  0.00  0.53   0.0
 1982 143   873   586  53.6   0.0  53.6  0.00  1.21     0.0  888.4  37.0  16.7  40.3  1.88  0.67  0.95  0.00  0.53   0.0
 1982 144   874   587  53.9   0.0  53.9  0.00  1.21     0.0  889.0  37.1  16.8  40.4  1.88  0.68  0.95  0.00  0.53   0.0
 1982 145   875   588  54.3   0.0  54.3  0.00  1.21     0.0  889.8  37.4  17.0  40.5  1.88  0.68  0.95  0.00  0.53   0.0
 1982 146   876   589  30.0   0.0  30.0  0.00  1.00     0.0  890.0  15.1  14.8  40.4  1.87  0.68  0.95  0.00  0.53   0.0
 1982 147   877   590  30.1   0.0  30.1  0.00  1.00     0.0  890.0  15.2  14.9  40.1  1.88  0.68  0.95  0.00  0.53   0.0
 1982 148   878   591  30.2   0.0  30.2  0.00  1.01     0.0  890.0  15.3  14.9  39.8  1.89  0.68  0.94  0.00  0.54   0.0
 1982 149   879   592  30.2   0.0  30.2  0.00  1.01     0.0  890.0  15.2  14.9  39.4  1.89  0.68  0.93  0.00  0.54   0.0
 1982 150   880   593  30.2   0.0  30.2  0.00  1.01     0.0  890.0  15.3  14.9  39.1  1.90  0.68  0.93  0.00  0.54   0.0
 1982 151   881   594  30.3   0.0  30.3  0.00  1.01     0.0  890.0  15.4  14.9  38.8  1.91  0.68  0.93  0.00  0.54   0.0
 1982 152   882   595  30.5   0.0  30.5  0.00  1.02     0.0  890.1  15.7  14.8  38.5  1.93  0.68  0.92  0.00  0.54   0.0
 1982 153   883   596  30.9   0.0  30.9  0.00  1.03     0.0  890.5  16.1  14.8  38.2  1.95  0.68  0.92  0.00  0.54   0.0
 1982 154   884   597  31.2   0.0  31.2  0.00  1.03     0.0  890.8  16.5  14.7  38.0  1.97  0.67  0.92  0.00  0.54   0.0
 1982 155   885   598  31.7   0.0  31.7  0.00  1.05     0.0  891.4  17.1  14.7  37.8  2.00  0.67  0.91  0.00  0.54   0.0
 1982 156   886   599  32.2   0.0  32.2  0.00  1.06     0.0  891.8  17.5  14.7  37.6  2.03  0.67  0.91  0.00  0.54   0.0
 1982 157   887   600  32.6   0.0  32.6  0.00  1.06     0.0  892.2  17.9  14.6  37.4  2.05  0.67  0.91  0.00  0.54   0.0
 1982 158   888   601  33.0   0.0  33.0  0.00  1.07     0.0  892.6  18.3  14.6  37.3  2.07  0.67  0.91  0.00  0.54   0.0
 1982 159   889   602  33.0   0.0  33.0  0.00  1.07     0.0  892.7  18.5  14.5  37.0  2.07  0.67  0.90  0.00  0.54   0.0
 1982 160   890   603  33.5   0.0  33.5  0.00  1.08     0.0  893.4  19.0  14.5  36.9  2.09  0.67  0.90  0.00  0.54   0.0
 1982 161   891   604  33.6   0.0  33.6  0.00  1.08     0.0  893.5  19.2  14.5  36.7  2.09  0.66  0.90  0.00  0.54   0.0
 1982 162   892   605  34.1   0.0  34.1  0.00  1.09     0.0  894.1  19.6  14.5  36.6  2.11  0.66  0.90  0.00  0.54   0.0
 1982 163   893   606  34.6   0.0  34.6  0.00  1.11     0.0  894.8  20.1  14.5  36.5  2.14  0.66  0.90  0.00  0.54   0.0
 1982 164   894   607  35.1   0.0  35.1  0.00  1.12     0.0  895.4  20.6  14.5  36.4  2.15  0.66  0.90  0.00  0.54   0.0
 1982 165   895   608  35.1   0.0  35.1  0.00  1.11     0.0  895.5  20.7  14.4  36.3  2.14  0.66  0.90  0.00  0.54   0.0
 1982 166   896   609  35.4   0.0  35.4  0.00  1.12     0.0  895.8  21.0  14.4  36.2  2.16  0.66  0.90  0.00  0.54   0.0
 1982 167   897   610  35.8   0.0  35.8  0.00  1.13     0.0  896.3  21.3  14.5  36.1  2.17  0.66  0.89  0.00  0.54   0.0
 1982 168   898   611  36.0   0.0  36.0  0.00  1.13     0.0  896.5  21.5  14.4  36.0  2.18  0.66  0.89  0.00  0.54   0.0
 1982 169   899   612  36.3   0.0  36.3  0.00  1.14     0.0  897.1  21.9  14.4  35.9  2.19  0.66  0.89  0.00  0.54   0.0
 1982 170   900   613  36.3   0.0  36.3  0.00  1.13     0.0  897.2  21.9  14.4  35.8  2.18  0.66  0.89  0.00  0.54   0.0
 1982 171   901   614  36.8   0.0  36.8  0.00  1.15     0.0  898.0  22.4  14.4  35.8  2.20  0.66  0.89  0.00  0.54   0.0
 1982 172   902   615  37.2   0.0  37.2  0.00  1.16     0.0  898.5  22.8  14.4  35.7  2.21  0.66  0.89  0.00  0.54   0.0
 1982 173   903   616  37.7   0.0  37.7  0.00  1.16     0.0  899.0  23.2  14.5  35.7  2.23  0.66  0.89  0.00  0.54   0.0
 1982 174   904   617  37.9   0.0  37.9  0.00  1.17     0.0  899.3  23.4  14.5  35.6  2.24  0.66  0.89  0.00  0.54   0.0
 1982 175   905   618  38.3   0.0  38.3  0.00  1.18     0.0  899.8  23.8  14.5  35.6  2.25  0.66  0.89  0.00  0.54   0.0
 1982 176   906   619  38.6   0.0  38.6  0.00  1.18     0.0  900.1  24.1  14.5  35.6  2.26  0.66  0.89  0.00  0.54   0.0
 1982 177   907   620  38.9   0.0  38.9  0.00  1.19     0.0  900.5  24.3  14.6  35.5  2.27  0.66  0.88  0.00  0.54   0.0
 1982 178   908   621  39.3   0.0  39.3  0.00  1.20     0.0  901.0  24.7  14.6  35.5  2.28  0.66  0.88  0.00  0.54   0.0
 1982 179   909   622  39.3   0.0  39.3  0.00  1.19     0.0  901.2  24.8  14.5  35.4  2.27  0.66  0.88  0.00  0.54   0.0
 1982 180   910   623  39.7   0.0  39.7  0.00  1.20     0.0  901.8  25.1  14.6  35.4  2.28  0.66  0.88  0.00  0.54   0.0
 1982 181   911   624  39.9   0.0  39.9  0.00  1.20     0.0  902.1  25.3  14.6  35.4  2.29  0.66  0.88  0.00  0.54   0.0
 1982 182   912   625  39.8   0.0  39.8  0.00  1.20     0.0  902.1  25.2  14.6  35.3  2.28  0.66  0.88  0.00  0.54   0.0
 1982 183   913   626  39.9   0.0  39.9  0.00  1.20     0.0  902.3  25.3  14.6  35.2  2.28  0.66  0.88  0.00  0.54   0.0
 1982 184   914   627  40.2   0.0  40.2  0.00  1.21     0.0  902.9  25.6  14.5  35.2  2.28  0.66  0.88  0.00  0.54   0.0
 1982 185   915   628  40.4   0.0  40.4  0.00  1.21     0.0  903.5  25.9  14.5  35.2  2.28  0.66  0.89  0.00  0.54   0.0
 1982 186   916   629  40.8   0.0  40.8  0.00  1.22     0.0  904.1  26.2  14.6  35.2  2.29  0.66  0.89  0.00  0.54   0.0
 1982 187   917   630  41.1   0.0  41.1  0.00  1.22     0.0  904.6  26.5  14.6  35.2  2.30  0.66  0.89  0.00  0.54   0.0
 1982 188   918   631  41.5   0.0  41.5  0.00  1.23     0.0  905.3  26.9  14.6  35.3  2.31  0.66  0.89  0.00  0.54   0.0
 1982 189   919   632  41.9   0.0  41.9  0.00  1.24     0.0  905.8  27.2  14.6  35.3  2.32  0.66  0.89  0.00  0.54   0.0
 1982 190   920   633  42.5   0.0  42.5  0.00  1.25     0.0  906.6  27.8  14.7  35.3  2.34  0.66  0.89  0.00  0.54   0.0
 1982 191   921   634  42.6   0.0  42.6  0.00  1.25     0.0  906.8  27.9  14.7  35.3  2.34  0.66  0.89  0.00  0.54   0.0
 1982 192   922   635  42.5   0.0  42.5  0.00  1.25     0.0  906.8  27.8  14.7  35.2  2.33  0.66  0.88  0.00  0.54   0.0
 1982 193   923   636  42.9   0.0  42.9  0.00  1.26     0.0  907.6  28.1  14.8  35.3  2.34  0.67  0.89  0.00  0.55   0.0
 1982 194   924   637  43.4   0.0  43.4  0.00  1.27     0.0  908.3  28.6  14.8  35.3  2.36  0.67  0.89  0.00  0.55   0.0
 1982 195   925   638  43.4   0.0  43.4  0.00  1.27     0.0  908.3  28.6  14.8  35.2  2.36  0.67  0.89  0.00  0.55   0.0
 1982 196   926   639  43.4   0.0  43.4  0.00  1.26     0.0  908.3  28.5  14.8  35.2  2.35  0.67  0.88  0.00  0.55   0.0
 1982 197   927   640  43.7   0.0  43.7  0.00  1.27     0.0  909.1  28.9  14.9  35.2  2.36  0.67  0.89  0.00  0.55   0.0
 1982 198   928   641  43.9   0.0  43.9  0.00  1.27     0.0  909.7  29.1  14.9  35.2  2.35  0.67  0.89  0.00  0.55   0.0
 1982 199   929   642  44.6   0.0  44.6  0.00  1.28     0.0  910.7  29.6  14.9  35.3  2.37  0.67  0.89  0.00  0.55   0.0
 1982 200   930   643  45.1   0.0  45.1  0.00  1.29     0.0  911.4  30.1  15.0  35.4  2.38  0.67  0.89  0.00  0.55   0.0
 1982 201   931   644  45.6   0.0  45.6  0.00  1.30     0.0  912.5  30.6  15.0  35.5  2.39  0.67  0.89  0.00  0.55   0.0
 1982 202   932   645  34.0   0.0  34.0  0.00  1.13     0.0  913.4  19.3  14.7  35.6  2.38  0.67  0.89  0.00  0.55   0.0
 1982 203   933   646  34.3   0.0  34.3  0.00  1.14     0.0  913.8  19.6  14.7  35.5  2.39  0.67  0.89  0.00  0.55   0.0
 1982 204   934   647  34.8   0.0  34.8  0.00  1.15     0.0  914.4  20.1  14.7  35.4  2.41  0.67  0.89  0.00  0.55   0.0
 1982 205   935   648  35.2   0.0  35.2  0.00  1.16     0.0  914.9  20.5  14.7  35.3  2.42  0.67  0.89  0.00  0.55   0.0
 1982 206   936   649  35.9   0.0  35.9  0.00  1.17     0.0  915.9  21.2  14.7  35.3  2.45  0.67  0.89  0.00  0.55   0.0
 1982 207   937   650  36.2   0.0  36.2  0.00  1.17     0.0  916.3  21.6  14.6  35.2  2.41  0.67  0.89  0.00  0.55   0.0
 1982 208   938   651  36.4   0.0  36.4  0.00  1.17     0.0  916.7  21.8  14.6  35.1  2.37  0.66  0.89  0.00  0.54   0.0
 1982 209   939   652  36.7   0.0  36.7  0.00  1.17     0.0  917.3  22.2  14.5  35.0  2.37  0.66  0.89  0.00  0.54   0.0
 1982 210   940   653  37.0   0.0  37.0  0.00  1.18     0.0  917.5  22.4  14.5  34.9  2.38  0.66  0.89  0.00  0.54   0.0
 1982 211   941   654  37.0   0.0  37.0  0.00  1.18     0.0  917.5  22.5  14.5  34.8  2.39  0.66  0.88  0.00  0.54   0.0
 1982 212   942   655  37.1   0.0  37.1  0.00  1.18     0.0  917.6  22.6  14.5  34.7  2.39  0.66  0.88  0.00  0.54   0.0
 1982 213   943   656  37.5   0.0  37.5  0.00  1.19     0.0  918.2  22.9  14.6  34.7  2.40  0.66  0.88  0.00  0.54   0.0
[...]
 2016 201 13349 13062   9.4   0.0   9.4  0.00  0.52     0.0 3768.6   0.0   9.4   0.0  1.03  0.52  0.86  0.00  0.00   0.0
 2016 202 13350 13063   9.4   0.0   9.4  0.00  0.52     0.0 3768.6   0.0   9.4   0.0  1.03  0.52  0.86  0.00  0.00   0.0
 2016 203 13351 13064   9.4   0.0   9.4  0.00  0.52     0.0 3768.6   0.0   9.4   0.0  1.03  0.52  0.86  0.00  0.00   0.0
 2016 204 13352 13065   9.4   0.0   9.4  0.00  0.52     0.0 3768.6   0.0   9.4   0.0  1.03  0.52  0.86  0.00  0.00   0.0
 2016 205 13353 13066   9.4   0.0   9.4  0.00  0.52     0.0 3768.6   0.0   9.4   0.0  1.03  0.52  0.86  0.00  0.00   0.0
 2016 206 13354 13067   9.4   0.0   9.4  0.00  0.52     0.0 3768.6   0.0   9.4   0.0  1.03  0.52  0.86  0.00  0.00   0.0
 2016 207 13355 13068   9.4   0.0   9.4  0.00  0.52     0.0 3768.6   0.0   9.4   0.0  1.03  0.52  0.86  0.00  0.00   0.0
 2016 208 13356 13069   9.4   0.0   9.4  0.00  0.52     0.0 3768.6   0.0   9.4   0.0  1.03  0.52  0.86  0.00  0.00   0.0
 2016 209 13357 13070   9.4   0.0   9.4  0.00  0.52     0.0 3768.6   0.0   9.4   0.0  1.03  0.52  0.86  0.00  0.00   0.0
 2016 210 13358 13071   9.4   0.0   9.4  0.00  0.52     0.0 3768.6   0.0   9.4   0.0  1.03  0.52  0.86  0.00  0.00   0.0
 2016 211 13359 13072   9.4   0.0   9.4  0.00  0.52     0.0 3768.6   0.0   9.4   0.0  1.03  0.52  0.86  0.00  0.00   0.0
 2016 212 13360 13073   9.4   0.0   9.4  0.00  0.52     0.0 3768.6   0.0   9.4   0.0  1.03  0.52  0.86  0.00  0.00   0.0
 2016 213 13361 13074   9.4   0.0   9.4  0.00  0.52     0.0 3768.6   0.0   9.4   0.0  1.03  0.52  0.86  0.00  0.00   0.0
 2016 214 13362 13075   9.4   0.0   9.4  0.00  0.52     0.0 3768.6   0.0   9.4   0.0  1.03  0.52  0.86  0.00  0.00   0.0
 2016 215 13363 13076   9.4   0.0   9.4  0.00  0.52     0.0 3768.6   0.0   9.4   0.0  1.03  0.52  0.86  0.00  0.00   0.0
 2016 216 13364 13077   9.4   0.0   9.4  0.00  0.52     0.0 3768.6   0.0   9.4   0.0  1.03  0.52  0.86  0.00  0.00   0.0
 2016 217 13365 13078   9.4   0.0   9.4  0.00  0.52     0.0 3768.6   0.0   9.4   0.0  1.03  0.52  0.86  0.00  0.00   0.0
 2016 218 13366 13079   9.4   0.0   9.4  0.00  0.52     0.0 3768.6   0.0   9.4   0.0  1.03  0.52  0.86  0.00  0.00   0.0
 2016 219 13367 13080   9.4   0.0   9.4  0.00  0.52     0.0 3768.6   0.0   9.4   0.0  1.03  0.52  0.86  0.00  0.00   0.0
 2016 220 13368 13081   9.4   0.0   9.4  0.00  0.52     0.0 3768.6   0.0   9.4   0.0  1.03  0.52  0.86  0.00  0.00   0.0
 2016 221 13369 13082   9.4   0.0   9.4  0.00  0.52     0.0 3768.6   0.0   9.4   0.0  1.03  0.52  0.86  0.00  0.00   0.0
 2016 222 13370 13083   9.4   0.0   9.4  0.00  0.52     0.0 3768.6   0.0   9.4   0.0  1.03  0.52  0.86  0.00  0.00   0.0
 2016 223 13371 13084   9.4   0.0   9.4  0.00  0.52     0.0 3768.6   0.0   9.4   0.0  1.03  0.52  0.86  0.00  0.00   0.0
 2016 224 13372 13085   9.4   0.0   9.4  0.00  0.52     0.0 3768.6   0.0   9.4   0.0  1.03  0.52  0.86  0.00  0.00   0.0
 2016 225 13373 13086   9.4   0.0   9.4  0.00  0.52     0.0 3768.6   0.0   9.4   0.0  1.03  0.52  0.86  0.00  0.00   0.0
 2016 226 13374 13087   9.4   0.0   9.4  0.00  0.52     0.0 3768.6   0.0   9.4   0.0  1.03  0.52  0.86  0.00  0.00   0.0
 2016 227 13375 13088   9.4   0.0   9.4  0.00  0.52     0.0 3768.6   0.0   9.4   0.0  1.03  0.52  0.86  0.00  0.00   0.0
 2016 228 13376 13089   9.4   0.0   9.4  0.00  0.52     0.0 3768.6   0.0   9.4   0.0  1.03  0.52  0.86  0.00  0.00   0.0
 2016 229 13377 13090   9.4   0.0   9.4  0.00  0.52     0.0 3768.6   0.0   9.4   0.0  1.03  0.52  0.86  0.00  0.00   0.0
 2016 230 13378 13091   9.4   0.0   9.4  0.00  0.52     0.0 3768.6   0.0   9.4   0.0  1.03  0.52  0.86  0.00  0.00   0.0
 2016 231 13379 13092   9.4   0.0   9.4  0.00  0.52     0.0 3768.6   0.0   9.4   0.0  1.03  0.52  0.86  0.00  0.00   0.0
 2016 232 13380 13093   9.4   0.0   9.4  0.00  0.52     0.0 3768.6   0.0   9.4   0.0  1.03  0.52  0.86  0.00  0.00   0.0
 2016 233 13381 13094   9.4   0.0   9.4  0.00  0.52     0.0 3768.6   0.0   9.4   0.0  1.03  0.52  0.86  0.00  0.00   0.0
 2016 234 13382 13095   9.4   0.0   9.4  0.00  0.52     0.0 3768.6   0.0   9.4   0.0  1.03  0.52  0.86  0.00  0.00   0.0
 2016 235 13383 13096   9.4   0.0   9.4  0.00  0.52     0.0 3768.6   0.0   9.4   0.0  1.03  0.52  0.86  0.00  0.00   0.0
 2016 236 13384 13097   9.4   0.0   9.4  0.00  0.52     0.0 3768.6   0.0   9.4   0.0  1.03  0.52  0.86  0.00  0.00   0.0
 2016 237 13385 13098   9.4   0.0   9.4  0.00  0.52     0.0 3768.6   0.0   9.4   0.0  1.03  0.52  0.86  0.00  0.00   0.0
 2016 238 13386 13099   9.4   0.0   9.4  0.00  0.52     0.0 3768.6   0.0   9.4   0.0  1.03  0.52  0.86  0.00  0.00   0.0
 2016 239 13387 13100   9.4   0.0   9.4  0.00  0.52     0.0 3768.6   0.0   9.4   0.0  1.03  0.52  0.86  0.00  0.00   0.0
 2016 240 13388 13101   9.4   0.0   9.4  0.00  0.52     0.0 3768.6   0.0   9.4   0.0  1.03  0.52  0.86  0.00  0.00   0.0
 2016 241 13389 13102   9.4   0.0   9.4  0.00  0.52     0.0 3768.6   0.0   9.4   0.0  1.03  0.52  0.86  0.00  0.00   0.0
 2016 242 13390 13103   9.4   0.0   9.4  0.00  0.52     0.0 3768.6   0.0   9.4   0.0  1.03  0.52  0.86  0.00  0.00   0.0
 2016 243 13391 13104   9.4   0.0   9.4  0.00  0.52     0.0 3768.6   0.0   9.4   0.0  1.03  0.52  0.86  0.00  0.00   0.0
 2016 244 13392 13105   9.4   0.0   9.4  0.00  0.52     0.0 3768.6   0.0   9.4   0.0  1.03  0.52  0.86  0.00  0.00   0.0
 2016 245 13393 13106   9.4   0.0   9.4  0.00  0.52     0.0 3768.6   0.0   9.4   0.0  1.03  0.52  0.86  0.00  0.00   0.0
 2016 246 13394 13107   9.4   0.0   9.4  0.00  0.52     0.0 3768.6   0.0   9.4   0.0  1.03  0.52  0.86  0.00  0.00   0.0
 2016 247 13395 13108   9.4   0.0   9.4  0.00  0.52     0.0 3768.6   0.0   9.4   0.0  1.03  0.52  0.86  0.00  0.00   0.0
 2016 248 13396 13109   9.4   0.0   9.4  0.00  0.52     0.0 3768.6   0.0   9.4   0.0  1.03  0.52  0.86  0.00  0.00   0.0
 2016 249 13397 13110   9.4   0.0   9.4  0.00  0.52     0.0 3768.6   0.0   9.4   0.0  1.03  0.52  0.86  0.00  0.00   0.0
 2016 250 13398 13111   9.4   0.0   9.4  0.00  0.52     0.0 3768.6   0.0   9.4   0.0  1.03  0.52  0.86  0.00  0.00   0.0
 2016 251 13399 13112   9.4   0.0   9.4  0.00  0.52     0.0 3768.6   0.0   9.4   0.0  1.03  0.52  0.86  0.00  0.00   0.0
 2016 252 13400 13113   9.4   0.0   9.4  0.00  0.52     0.0 3768.6   0.0   9.4   0.0  1.03  0.52  0.86  0.00  0.00   0.0
 2016 253 13401 13114   9.4   0.0   9.4  0.00  0.52     0.0 3768.6   0.0   9.4   0.0  1.03  0.52  0.86  0.00  0.00   0.0
 2016 254 13402 13115   9.4   0.0   9.4  0.00  0.52     0.0 3768.6   0.0   9.4   0.0  1.03  0.52  0.86  0.00  0.00   0.0
 2016 255 13403 13116   9.4   0.0   9.4  0.00  0.52     0.0 3768.6   0.0   9.4   0.0  1.03  0.52  0.86  0.00  0.00   0.0
 2016 256 13404 13117   9.4   0.0   9.4  0.00  0.52     0.0 3768.6   0.0   9.4   0.0  1.03  0.52  0.86  0.00  0.00   0.0
 2016 257 13405 13118   9.4   0.0   9.4  0.00  0.52     0.0 3768.6   0.0   9.4   0.0  1.03  0.52  0.86  0.00  0.00   0.0
 2016 258 13406 13119   9.4   0.0   9.4  0.00  0.52     0.0 3768.6   0.0   9.4   0.0  1.03  0.52  0.86  0.00  0.00   0.0
 2016 259 13407 13120   9.4   0.0   9.4  0.00  0.52     0.0 3768.6   0.0   9.4   0.0  1.03  0.52  0.86  0.00  0.00   0.0
 2016 260 13408 13121   9.4   0.0   9.4  0.00  0.52     0.0 3768.6   0.0   9.4   0.0  1.03  0.52  0.86  0.00  0.00   0.0
 2016 261 13409 13122   9.4   0.0   9.4  0.00  0.52     0.0 3768.6   0.0   9.4   0.0  1.03  0.52  0.86  0.00  0.00   0.0
 2016 262 13410 13123   9.4   0.0   9.4  0.00  0.52     0.0 3768.6   0.0   9.4   0.0  1.03  0.52  0.86  0.00  0.00   0.0
 2016 263 13411 13124   9.4   0.0   9.4  0.00  0.52     0.0 3768.6   0.0   9.4   0.0  1.03  0.52  0.86  0.00  0.00   0.0
 2016 264 13412 13125   9.4   0.0   9.4  0.00  0.52     0.0 3768.6   0.0   9.4   0.0  1.03  0.52  0.86  0.00  0.00   0.0
 2016 265 13413 13126   9.4   0.0   9.4  0.00  0.52     0.0 3768.6   0.0   9.4   0.0  1.03  0.52  0.86  0.00  0.00   0.0
 2016 266 13414 13127   9.4   0.0   9.4  0.00  0.52     0.0 3768.6   0.0   9.4   0.0  1.03  0.52  0.86  0.00  0.00   0.0
 2016 267 13415 13128   9.4   0.0   9.4  0.00  0.52     0.0 3768.6   0.0   9.4   0.0  1.03  0.52  0.86  0.00  0.00   0.0
 2016 268 13416 13129   9.4   0.0   9.4  0.00  0.52     0.0 3768.6   0.0   9.4   0.0  1.03  0.52  0.86  0.00  0.00   0.0
 2016 269 13417 13130   9.4   0.0   9.4  0.00  0.52     0.0 3768.6   0.0   9.4   0.0  1.03  0.52  0.86  0.00  0.00   0.0
 2016 270 13418 13131   9.4   0.0   9.4  0.00  0.52     0.0 3768.6   0.0   9.4   0.0  1.03  0.52  0.86  0.00  0.00   0.0
 2016 271 13419 13132   9.4   0.0   9.4  0.00  0.52     0.0 3768.6   0.0   9.4   0.0  1.03  0.52  0.86  0.00  0.00   0.0
 2016 272 13420 13133   9.4   0.0   9.4  0.00  0.52     0.0 3768.6   0.0   9.4   0.0  1.03  0.52  0.86  0.00  0.00   0.0
 2016 273 13421 13134   9.4   0.0   9.4  0.00  0.52     0.0 3768.6   0.0   9.4   0.0  1.03  0.52  0.86  0.00  0.00   0.0
 2016 274 13422 13135   9.4   0.0   9.4  0.00  0.52     0.0 3768.6   0.0   9.4   0.0  1.03  0.52  0.86  0.00  0.00   0.0
 2016 275 13423 13136   9.4   0.0   9.4  0.00  0.52     0.0 3768.6   0.0   9.4   0.0  1.03  0.52  0.86  0.00  0.00   0.0
 2016 276 13424 13137   9.4   0.0   9.4  0.00  0.52     0.0 3768.6   0.0   9.4   0.0  1.03  0.52  0.86  0.00  0.00   0.0
 2016 277 13425 13138   9.4   0.0   9.4  0.00  0.52     0.0 3768.6   0.0   9.4   0.0  1.03  0.52  0.86  0.00  0.00   0.0
 2016 278 13426 13139   9.4   0.0   9.4  0.00  0.52     0.0 3768.6   0.0   9.4   0.0  1.03  0.52  0.86  0.00  0.00   0.0
 2016 279 13427 13140   9.4   0.0   9.4  0.00  0.52     0.0 3768.6   0.0   9.4   0.0  1.03  0.52  0.86  0.00  0.00   0.0
 2016 280 13428 13141   9.4   0.0   9.4  0.00  0.52     0.0 3768.6   0.0   9.4   0.0  1.03  0.52  0.86  0.00  0.00   0.0
 2016 281 13429 13142   9.4   0.0   9.4  0.00  0.52     0.0 3768.6   0.0   9.4   0.0  1.03  0.52  0.86  0.00  0.00   0.0
 2016 282 13430 13143   9.4   0.0   9.4  0.00  0.52     0.0 3768.6   0.0   9.4   0.0  1.03  0.52  0.86  0.00  0.00   0.0
 2016 283 13431 13144   9.4   0.0   9.4  0.00  0.52     0.0 3768.6   0.0   9.4   0.0  1.03  0.52  0.86  0.00  0.00   0.0
 2016 284 13432 13145   9.4   0.0   9.4  0.00  0.52     0.0 3768.6   0.0   9.4   0.0  1.03  0.52  0.86  0.00  0.00   0.0
 2016 285 13433 13146   9.4   0.0   9.4  0.00  0.52     0.0 3768.6   0.0   9.4   0.0  1.03  0.52  0.86  0.00  0.00   0.0
 2016 286 13434 13147   9.4   0.0   9.4  0.00  0.52     0.0 3768.6   0.0   9.4   0.0  1.03  0.52  0.86  0.00  0.00   0.0
 2016 287 13435 13148   9.4   0.0   9.4  0.00  0.52     0.0 3768.6   0.0   9.4   0.0  1.03  0.52  0.86  0.00  0.00   0.0
 2016 288 13436 13149   9.4   0.0   9.4  0.00  0.52     0.0 3768.6   0.0   9.4   0.0  1.03  0.52  0.86  0.00  0.00   0.0
 2016 289 13437 13150   9.4   0.0   9.4  0.00  0.52     0.0 3768.6   0.0   9.4   0.0  1.03  0.52  0.86  0.00  0.00   0.0
 2016 290 13438 13151   9.4   0.0   9.4  0.00  0.52     0.0 3768.6   0.0   9.4   0.0  1.03  0.52  0.86  0.00  0.00   0.0
 2016 291 13439 13152   9.4   0.0   9.4  0.00  0.52     0.0 3768.6   0.0   9.4   0.0  1.03  0.52  0.86  0.00  0.00   0.0
 2016 292 13440 13153   9.4   0.0   9.4  0.00  0.52     0.0 3768.6   0.0   9.4   0.0  1.03  0.52  0.86  0.00  0.00   0.0
 2016 293 13441 13154   9.4   0.0   9.4  0.00  0.52     0.0 3768.6   0.0   9.4   0.0  1.03  0.52  0.86  0.00  0.00   0.0
 2016 294 13442 13155   9.4   0.0   9.4  0.00  0.52     0.0 3768.6   0.0   9.4   0.0  1.03  0.52  0.86  0.00  0.00   0.0
 2016 295 13443 13156   9.4   0.0   9.4  0.00  0.52     0.0 3768.6   0.0   9.4   0.0  1.03  0.52  0.86  0.00  0.00   0.0
 2016 296 13444 13157   9.4   0.0   9.4  0.00  0.52     0.0 3768.6   0.0   9.4   0.0  1.03  0.52  0.86  0.00  0.00   0.0
 2016 297 13445 13158   9.4   0.0   9.4  0.00  0.52     0.0 3768.6   0.0   9.4   0.0  1.03  0.52  0.86  0.00  0.00   0.0
 2016 298 13446 13159   9.4   0.0   9.4  0.00  0.52     0.0 3768.6   0.0   9.4   0.0  1.03  0.52  0.86  0.00  0.00   0.0
 2016 299 13447 13160   9.4   0.0   9.4  0.00  0.52     0.0 3768.6   0.0   9.4   0.0  1.03  0.52  0.86  0.00  0.00   0.0
 2016 300 13448 13161   9.4   0.0   9.4  0.00  0.52     0.0 3768.6   0.0   9.4   0.0  1.03  0.52  0.86  0.00  0.00   0.0
 2016 301 13449 13162   9.4   0.0   9.4  0.00  0.52     0.0 3768.6   0.0   9.4   0.0  1.03  0.52  0.86  0.00  0.00   0.0
 2016 302 13450 13163   9.4   0.0   9.4  0.00  0.52     0.0 3768.6   0.0   9.4   0.0  1.03  0.52  0.86  0.00  0.00   0.0
 2016 303 13451 13164   9.4   0.0   9.4  0.00  0.52     0.0 3768.6   0.0   9.4   0.0  1.03  0.52  0.86  0.00  0.00   0.0
 2016 304 13452 13165   9.4   0.0   9.4  0.00  0.52     0.0 3768.6   0.0   9.4   0.0  1.03  0.52  0.86  0.00  0.00   0.0
 2016 305 13453 13166   9.4   0.0   9.4  0.00  0.52     0.0 3768.6   0.0   9.4   0.0  1.03  0.52  0.86  0.00  0.00   0.0
 2016 306 13454 13167   9.4   0.0   9.4  0.00  0.52     0.0 3768.6   0.0   9.4   0.0  1.03  0.52  0.86  0.00  0.00   0.0
 2016 307 13455 13168   9.4   0.0   9.4  0.00  0.52     0.0 3768.6   0.0   9.4   0.0  1.03  0.52  0.86  0.00  0.00   0.0
 2016 308 13456 13169   9.4   0.0   9.4  0.00  0.52     0.0 3768.6   0.0   9.4   0.0  1.03  0.52  0.86  0.00  0.00   0.0
 2016 309 13457 13170   9.4   0.0   9.4  0.00  0.52     0.0 3768.6   0.0   9.4   0.0  1.03  0.52  0.86  0.00  0.00   0.0
 2016 310 13458 13171   9.4   0.0   9.4  0.00  0.52     0.0 3768.6   0.0   9.4   0.0  1.03  0.52  0.86  0.00  0.00   0.0
 2016 311 13459 13172   9.4   0.0   9.4  0.00  0.52     0.0 3768.6   0.0   9.4   0.0  1.03  0.52  0.86  0.00  0.00   0.0
 2016 312 13460 13173   9.4   0.0   9.4  0.00  0.52     0.0 3768.6   0.0   9.4   0.0  1.03  0.52  0.87  0.00  0.00   0.0
 2016 313 13461 13174   9.4   0.0   9.4  0.00  0.52     0.0 3768.6   0.0   9.4   0.0  1.03  0.52  0.87  0.00  0.00   0.0
 2016 314 13462 13175   9.4   0.0   9.4  0.00  0.52     0.0 3768.6   0.0   9.4   0.0  1.03  0.52  0.87  0.00  0.00   0.0
 2016 315 13463 13176   9.4   0.0   9.4  0.00  0.52     0.0 3768.6   0.0   9.4   0.0  1.03  0.52  0.87  0.00  0.00   0.0
 2016 316 13464 13177   9.4   0.0   9.4  0.00  0.52     0.0 3768.6   0.0   9.4   0.0  1.03  0.52  0.87  0.00  0.00   0.0
 2016 317 13465 13178   9.4   0.0   9.4  0.00  0.52     0.0 3768.6   0.0   9.4   0.0  1.03  0.52  0.87  0.00  0.00   0.0
 2016 318 13466 13179   9.4   0.0   9.4  0.00  0.52     0.0 3768.6   0.0   9.4   0.0  1.03  0.52  0.87  0.00  0.00   0.0
 2016 319 13467 13180   9.4   0.0   9.4  0.00  0.52     0.0 3768.6   0.0   9.4   0.0  1.03  0.52  0.87  0.00  0.00   0.0
 2016 320 13468 13181   9.4   0.0   9.4  0.00  0.52     0.0 3768.6   0.0   9.4   0.0  1.03  0.52  0.87  0.00  0.00   0.0
 2016 321 13469 13182   9.4   0.0   9.4  0.00  0.52     0.0 3768.6   0.0   9.4   0.0  1.03  0.52  0.87  0.00  0.00   0.0
 2016 322 13470 13183   9.4   0.0   9.4  0.00  0.52     0.0 3768.6   0.0   9.4   0.0  1.03  0.52  0.87  0.00  0.00   0.0
 2016 323 13471 13184   9.4   0.0   9.4  0.00  0.52     0.0 3768.6   0.0   9.4   0.0  1.03  0.52  0.87  0.00  0.00   0.0
 2016 324 13472 13185   9.4   0.0   9.4  0.00  0.52     0.0 3768.6   0.0   9.4   0.0  1.03  0.52  0.87  0.00  0.00   0.0
 2016 325 13473 13186   9.4   0.0   9.4  0.00  0.52     0.0 3768.6   0.0   9.4   0.0  1.03  0.52  0.87  0.00  0.00   0.0
 2016 326 13474 13187   9.4   0.0   9.4  0.00  0.52     0.0 3768.6   0.0   9.4   0.0  1.03  0.52  0.87  0.00  0.00   0.0
 2016 327 13475 13188   9.4   0.0   9.4  0.00  0.52     0.0 3768.6   0.0   9.4   0.0  1.03  0.52  0.87  0.00  0.00   0.0
 2016 328 13476 13189   9.4   0.0   9.4  0.00  0.52     0.0 3768.6   0.0   9.4   0.0  1.03  0.52  0.87  0.00  0.00   0.0
 2016 329 13477 13190   9.4   0.0   9.4  0.00  0.52     0.0 3768.6   0.0   9.4   0.0  1.03  0.52  0.87  0.00  0.00   0.0
 2016 330 13478 13191   9.4   0.0   9.4  0.00  0.52     0.0 3768.6   0.0   9.4   0.0  1.03  0.52  0.87  0.00  0.00   0.0
 2016 331 13479 13192   9.4   0.0   9.4  0.00  0.52     0.0 3768.6   0.0   9.4   0.0  1.03  0.52  0.87  0.00  0.00   0.0
 2016 332 13480 13193   9.4   0.0   9.4  0.00  0.52     0.0 3768.6   0.0   9.4   0.0  1.03  0.52  0.87  0.00  0.00   0.0
 2016 333 13481 13194   9.4   0.0   9.4  0.00  0.52     0.0 3768.6   0.0   9.4   0.0  1.03  0.52  0.87  0.00  0.00   0.0
 2016 334 13482 13195   9.4   0.0   9.4  0.00  0.52     0.0 3768.6   0.0   9.4   0.0  1.03  0.52  0.87  0.00  0.00   0.0
 2016 335 13483 13196   9.4   0.0   9.4  0.00  0.52     0.0 3768.6   0.0   9.4   0.0  1.03  0.52  0.87  0.00  0.00   0.0
 2016 336 13484 13197   9.4   0.0   9.4  0.00  0.52     0.0 3768.6   0.0   9.4   0.0  1.03  0.52  0.87  0.00  0.00   0.0
 2016 337 13485 13198   9.4   0.0   9.4  0.00  0.52     0.0 3768.6   0.0   9.4   0.0  1.03  0.52  0.87  0.00  0.00   0.0
 2016 338 13486 13199   9.4   0.0   9.4  0.00  0.52     0.0 3768.6   0.0   9.4   0.0  1.03  0.52  0.87  0.00  0.00   0.0
 2016 339 13487 13200   9.4   0.0   9.4  0.00  0.52     0.0 3768.6   0.0   9.4   0.0  1.03  0.52  0.87  0.00  0.00   0.0
 2016 340 13488 13201   9.4   0.0   9.4  0.00  0.52     0.0 3768.6   0.0   9.4   0.0  1.03  0.52  0.87  0.00  0.00   0.0
 2016 341 13489 13202   9.4   0.0   9.4  0.00  0.52     0.0 3768.6   0.0   9.4   0.0  1.03  0.52  0.87  0.00  0.00   0.0
 2016 342 13490 13203   9.4   0.0   9.4  0.00  0.52     0.0 3768.6   0.0   9.4   0.0  1.03  0.52  0.87  0.00  0.00   0.0
 2016 343 13491 13204   9.4   0.0   9.4  0.00  0.52     0.0 3768.6   0.0   9.4   0.0  1.03  0.52  0.87  0.00  0.00   0.0
 2016 344 13492 13205   9.4   0.0   9.4  0.00  0.52     0.0 3768.6   0.0   9.4   0.0  1.03  0.52  0.87  0.00  0.00   0.0
 2016 345 13493 13206   9.4   0.0   9.4  0.00  0.52     0.0 3768.6   0.0   9.4   0.0  1.03  0.52  0.87  0.00  0.00   0.0
 2016 346 13494 13207   9.4   0.0   9.4  0.00  0.52     0.0 3768.6   0.0   9.4   0.0  1.03  0.52  0.87  0.00  0.00   0.0
 2016 347 13495 13208   9.4   0.0   9.4  0.00  0.52     0.0 3768.6   0.0   9.4   0.0  1.03  0.52  0.87  0.00  0.00   0.0
 2016 348 13496 13209   9.4   0.0   9.4  0.00  0.52     0.0 3768.6   0.0   9.4   0.0  1.03  0.52  0.87  0.00  0.00   0.0
 2016 349 13497 13210   9.4   0.0   9.4  0.00  0.52     0.0 3768.6   0.0   9.4   0.0  1.03  0.52  0.87  0.00  0.00   0.0
 2016 350 13498 13211   9.4   0.0   9.4  0.00  0.52     0.0 3768.6   0.0   9.4   0.0  1.03  0.52  0.87  0.00  0.00   0.0
 2016 351 13499 13212   9.4   0.0   9.4  0.00  0.52     0.0 3768.6   0.0   9.4   0.0  1.03  0.52  0.87  0.00  0.00   0.0
 2016 352 13500 13213   9.4   0.0   9.4  0.00  0.52     0.0 3768.6   0.0   9.4   0.0  1.03  0.52  0.87  0.00  0.00   0.0
 2016 353 13501 13214   9.4   0.0   9.4  0.00  0.52     0.0 3768.6   0.0   9.4   0.0  1.03  0.52  0.87  0.00  0.00   0.0
 2016 354 13502 13215   9.4   0.0   9.4  0.00  0.52     0.0 3768.6   0.0   9.4   0.0  1.03  0.52  0.87  0.00  0.00   0.0
 2016 355 13503 13216   9.4   0.0   9.4  0.00  0.52     0.0 3768.6   0.0   9.4   0.0  1.03  0.52  0.87  0.00  0.00   0.0
 2016 356 13504 13217   9.4   0.0   9.4  0.00  0.52     0.0 3768.6   0.0   9.4   0.0  1.03  0.52  0.87  0.00  0.00   0.0
 2016 357 13505 13218   9.4   0.0   9.4  0.00  0.52     0.0 3768.6   0.0   9.4   0.0  1.03  0.52  0.87  0.00  0.00   0.0
 2016 358 13506 13219   9.4   0.0   9.4  0.00  0.52     0.0 3768.6   0.0   9.4   0.0  1.03  0.52  0.87  0.00  0.00   0.0
 2016 359 13507 13220   9.4   0.0   9.4  0.00  0.52     0.0 3768.6   0.0   9.4   0.0  1.03  0.52  0.87  0.00  0.00   0.0
 2016 360 13508 13221   9.4   0.0   9.4  0.00  0.52     0.0 3768.6   0.0   9.4   0.0  1.03  0.52  0.87  0.00  0.00   0.0
 2016 361 13509 13222   9.4   0.0   9.4  0.00  0.52     0.0 3768.6   0.0   9.4   0.0  1.03  0.52  0.87  0.00  0.00   0.0
 2016 362 13510 13223   9.4   0.0   9.4  0.00  0.52     0.0 3768.6   0.0   9.4   0.0  1.03  0.52  0.87  0.00  0.00   0.0
 2016 363 13511 13224   9.4   0.0   9.4  0.00  0.52     0.0 3768.6   0.0   9.4   0.0  1.03  0.52  0.87  0.00  0.00   0.0
 2016 364 13512 13225   9.4   0.0   9.4  0.00  0.52     0.0 3768.6   0.0   9.4   0.0  1.03  0.52  0.87  0.00  0.00   0.0
 2016 365 13513 13226   9.4   0.0   9.4  0.00  0.52     0.0 3768.6   0.0   9.4   0.0  1.03  0.52  0.87  0.00  0.00   0.0
