*Soil Carbon Balance Summary

*DSSAT Cropping System Model Ver. 4.8.0.027 -release  FEB 01, 2024 15:59:10
!                             <----------------- Initial State Variables ----------------><------------------ Final State Variables -----------------><----------- Added ----------><---------------- Lost ---------------->
!                             <-------- SOM-C -------><-------- FOM-C -------><-----CH4--><-------- SOM-C -------><-------- FOM-C -------><-----CH4--><---OM---><Senesced><-HarvRes><----------------- GHG ----------------><--Balance->
!                                     Surf        Soil        Surf        Soil     Storage        Surf        Soil        Surf        Soil     Storage 
@Run FILEX               TN CR       SC0Di      SOMCTi       LC0Di       LCTDi     CH4STDi        SC0D       SOMCT        LC0D        LCTD      CH4STD      OMAC     SENCC      HRCH     CO2EC     CH4EC    CH4LCC    CH4COC      CUMBAL
   1 SPPI7902.BRX         1 BR        0.00   315929.44        0.00     4000.00        0.00        0.00   278310.72        0.00        0.00        0.00      0.00  78138.79      0.00 119762.91      0.00      0.00      0.00     -5.0340
