*SOIL WATER DAILY OUTPUT FILE

*DSSAT Cropping System Model Ver. 4.8.0.027 -release  FEB 01, 2024 15:59:10

*RUN   1        : MARANDU11299              PRFRM048 SPPI7902    1
 MODEL          : PRFRM048 - Brachiaria
 EXPERIMENT     : SPPI7902 BR
 DATA PATH      : C:/DSSAT48/Brachiaria/
 TREATMENT  1   : MARANDU11299              PRFRM048
  
!                                                                                                 Soil water content (mm3/mm3) by soil depth (cm):
!                                                                                                 0-5    5-15   15-30   30-45   45-60   60-80  80-100 100-150 150-200
@YEAR DOY   DAS  SWTD  SWXD   ROFC   DRNC   PREC  IR#C  IRRC  DTWT    MWTD  TDFD  TDFC   ROFD    SW1D    SW2D    SW3D    SW4D    SW5D    SW6D    SW7D    SW8D    SW9D
 1980 001     0   634   248      0      0      0     0     0     0    0.00   0.0   0.0   0.00   0.279   0.298   0.316   0.334   0.334   0.324   0.324   0.313   0.313
 1980 002     1   628   242      0      0      0     0     0   100    0.00   0.0   0.0   0.00   0.159   0.298   0.316   0.334   0.334   0.324   0.324   0.313   0.313
 1980 003     2   625   239      0      0      0     0     0   200    0.00   0.0   0.0   0.00   0.115   0.292   0.316   0.334   0.334   0.324   0.324   0.313   0.313
 1980 004     3   625   239      0      0      0     0     0   200    0.00   0.0   0.0   0.00   0.114   0.287   0.315   0.334   0.334   0.324   0.324   0.313   0.313
 1980 005     4   624   238      0      0      0     0     0   200    0.00   0.0   0.0   0.00   0.113   0.283   0.315   0.334   0.334   0.324   0.324   0.313   0.313
 1980 006     5   641   255      1      0     18     0     0   200    0.00   0.0   0.0   0.55   0.356   0.312   0.321   0.337   0.337   0.324   0.324   0.313   0.313
 1980 007     6   636   250      1      0     19     0     0   200    0.00   0.0   0.0   0.00   0.208   0.316   0.324   0.339   0.338   0.326   0.326   0.313   0.313
 1980 008     7   633   248      1      0     19     0     0   200    0.00   0.0   0.0   0.00   0.176   0.302   0.323   0.340   0.339   0.327   0.326   0.314   0.313
 1980 009     8   632   246      1      0     20     0     0   200    0.00   0.0   0.0   0.00   0.152   0.294   0.320   0.339   0.339   0.327   0.327   0.315   0.313
 1980 010     9   630   245      1      0     20     0     0   199    0.00   0.0   0.0   0.00   0.138   0.289   0.318   0.338   0.339   0.327   0.327   0.315   0.315
 1980 011    10   628   242      1      1     20     0     0   199    0.00   0.0   0.0   0.00   0.129   0.284   0.317   0.336   0.336   0.326   0.326   0.315   0.315
 1980 012    11   627   242      1      1     20     0     0   199    0.00   0.0   0.0   0.00   0.121   0.281   0.316   0.336   0.336   0.326   0.326   0.315   0.315
 1980 013    12   626   241      1      1     20     0     0   199    0.00   0.0   0.0   0.00   0.114   0.277   0.316   0.336   0.336   0.326   0.326   0.315   0.315
 1980 014    13   626   240      1      1     20     0     0   199    0.00   0.0   0.0   0.00   0.111   0.274   0.315   0.336   0.336   0.326   0.326   0.315   0.315
 1980 015    14   625   240      1      1     20     0     0   199    0.00   0.0   0.0   0.00   0.111   0.272   0.314   0.336   0.336   0.326   0.326   0.315   0.315
 1980 016    15   625   239      1      1     20     0     0   199    0.00   0.0   0.0   0.00   0.110   0.270   0.313   0.336   0.336   0.326   0.326   0.315   0.315
 1980 017    16   625   239      1      1     20     0     0   199    0.00   0.0   0.0   0.00   0.110   0.268   0.312   0.336   0.336   0.326   0.326   0.315   0.315
 1980 018    17   625   239      1      1     20     0     0   199    0.00   0.0   0.0   0.00   0.123   0.266   0.312   0.335   0.336   0.326   0.326   0.315   0.315
 1980 019    18   626   240      1      1     23     0     0   199    0.00   0.0   0.0   0.00   0.153   0.264   0.311   0.335   0.336   0.326   0.326   0.315   0.315
 1980 020    19   626   241      1      1     24     0     0   199    0.00   0.0   0.0   0.00   0.165   0.262   0.310   0.335   0.336   0.326   0.326   0.315   0.315
 1980 021    20   626   240      1      1     24     0     0   199    0.00   0.0   0.0   0.00   0.157   0.261   0.309   0.335   0.336   0.326   0.326   0.315   0.315
 1980 022    21   625   239      1      1     24     0     0   199    0.00   0.0   0.0   0.00   0.149   0.260   0.308   0.334   0.336   0.326   0.326   0.315   0.315
 1980 023    22   636   250      1      1     37     0     0   199    0.00   0.0   0.0   0.04   0.309   0.287   0.308   0.334   0.336   0.326   0.326   0.315   0.315
 1980 024    23   638   253      1      1     44     0     0   199    0.00   0.0   0.0   0.00   0.268   0.317   0.318   0.336   0.336   0.326   0.326   0.315   0.315
 1980 025    24   633   248      1      2     44     0     0   199    0.00   0.0   0.0   0.00   0.188   0.306   0.318   0.336   0.336   0.326   0.326   0.315   0.315
 1980 026    25   631   245      1      3     44     0     0   199    0.00   0.0   0.0   0.00   0.163   0.296   0.318   0.336   0.336   0.326   0.326   0.315   0.315
 1980 027    26   630   244      1      3     44     0     0   199    0.00   0.0   0.0   0.00   0.150   0.291   0.318   0.336   0.336   0.326   0.326   0.315   0.315
 1980 028    27   629   243      1      3     44     0     0   199    0.00   0.0   0.0   0.00   0.141   0.286   0.317   0.336   0.336   0.326   0.326   0.315   0.315
 1980 029    28   628   242      1      3     44     0     0   199    0.00   0.0   0.0   0.00   0.133   0.282   0.317   0.336   0.336   0.326   0.326   0.315   0.315
 1980 030    29   627   241      1      3     44     0     0   199    0.00   0.0   0.0   0.00   0.127   0.279   0.316   0.336   0.336   0.326   0.326   0.315   0.315
 1980 031    30   627   242      1      3     46     0     0   199    0.00   0.0   0.0   0.00   0.141   0.276   0.315   0.336   0.336   0.326   0.326   0.315   0.315
 1980 032    31   627   241      1      3     46     0     0   199    0.00   0.0   0.0   0.00   0.134   0.273   0.314   0.336   0.336   0.326   0.326   0.315   0.315
 1980 033    32   626   240      1      3     46     0     0   199    0.00   0.0   0.0   0.00   0.128   0.270   0.313   0.335   0.336   0.326   0.326   0.315   0.315
 1980 034    33   625   240      1      3     46     0     0   199    0.00   0.0   0.0   0.00   0.123   0.268   0.312   0.335   0.336   0.326   0.326   0.315   0.315
 1980 035    34   625   239      1      3     46     0     0   199    0.00   0.0   0.0   0.00   0.118   0.266   0.312   0.335   0.336   0.326   0.326   0.315   0.315
 1980 036    35   627   241      1      3     48     0     0   199    0.00   0.0   0.0   0.00   0.159   0.264   0.311   0.335   0.336   0.326   0.326   0.315   0.315
 1980 037    36   628   242      1      3     52     0     0   199    0.00   0.0   0.0   0.00   0.191   0.263   0.310   0.335   0.336   0.326   0.326   0.315   0.315
 1980 038    37   628   243      1      3     55     0     0   199    0.00   0.0   0.0   0.00   0.205   0.262   0.309   0.335   0.336   0.326   0.326   0.315   0.315
 1980 039    38   627   242      1      3     55     0     0   199    0.00   0.0   0.0   0.00   0.192   0.262   0.309   0.334   0.336   0.326   0.326   0.315   0.315
 1980 040    39   627   241      1      3     55     0     0   199    0.00   0.0   0.0   0.00   0.182   0.261   0.308   0.334   0.336   0.326   0.326   0.315   0.315
 1980 041    40   634   248      1      3     63     0     0   199    0.00   0.0   0.0   0.00   0.295   0.277   0.307   0.334   0.336   0.326   0.326   0.315   0.315
 1980 042    41   641   255      1      3     76     0     0   199    0.00   0.0   0.0   0.39   0.256   0.333   0.323   0.337   0.337   0.326   0.326   0.315   0.315
 1980 043    42   635   249      1      5     76     0     0   199    0.00   0.0   0.0   0.00   0.179   0.314   0.319   0.337   0.337   0.326   0.326   0.315   0.315
 1980 044    43   632   246      1      6     76     0     0   199    0.00   0.0   0.0   0.00   0.158   0.300   0.318   0.337   0.337   0.326   0.326   0.315   0.315
 1980 045    44   631   245      1      6     76     0     0   199    0.00   0.0   0.0   0.00   0.147   0.294   0.317   0.337   0.337   0.326   0.326   0.315   0.315
 1980 046    45   631   245      1      6     78     0     0   199    0.00   0.0   0.0   0.00   0.169   0.289   0.317   0.337   0.337   0.326   0.326   0.315   0.315
 1980 047    46   645   259      2      7     97     0     0   199    0.00   0.0   0.0   1.21   0.301   0.332   0.329   0.342   0.339   0.327   0.326   0.315   0.315
 1980 048    47   652   266      3      8    110     0     0   199    0.00   0.0   0.0   0.70   0.278   0.360   0.343   0.352   0.346   0.330   0.328   0.315   0.315
 1980 049    48   640   254      3     16    110     0     0   199    0.00   0.0   0.0   0.00   0.206   0.329   0.330   0.343   0.340   0.327   0.326   0.315   0.315
 1980 050    49   634   249      3     19    110     0     0   199    0.00   0.0   0.0   0.00   0.171   0.308   0.323   0.338   0.337   0.327   0.326   0.315   0.315
 1980 051    50   633   247      3     19    110     0     0   199    0.00   0.0   0.0   0.00   0.156   0.297   0.321   0.339   0.338   0.327   0.326   0.316   0.315
 1980 052    51   631   245      3     20    110     0     0   199    0.00   0.0   0.0   0.00   0.147   0.291   0.318   0.336   0.336   0.327   0.326   0.316   0.315
 1980 053    52   630   244      3     20    110     0     0   199    0.00   0.0   0.0   0.00   0.140   0.286   0.318   0.336   0.336   0.327   0.326   0.316   0.315
 1980 054    53   629   243      3     20    110     0     0   199    0.00   0.0   0.0   0.00   0.134   0.282   0.317   0.336   0.336   0.327   0.326   0.316   0.315
 1980 055    54   629   244      3     20    111     0     0   199    0.00   0.0   0.0   0.00   0.149   0.279   0.316   0.336   0.336   0.327   0.326   0.316   0.315
 1980 056    55   629   243      3     20    112     0     0   199    0.00   0.0   0.0   0.00   0.142   0.276   0.316   0.336   0.336   0.327   0.326   0.316   0.315
 1980 057    56   628   242      3     20    112     0     0   199    0.00   0.0   0.0   0.00   0.136   0.273   0.315   0.336   0.336   0.327   0.326   0.316   0.315
 1980 058    57   627   242      3     20    112     0     0   199    0.00   0.0   0.0   0.00   0.131   0.271   0.314   0.336   0.336   0.327   0.326   0.316   0.315
 1980 059    58   627   241      3     20    112     0     0   199    0.00   0.0   0.0   0.00   0.126   0.268   0.313   0.336   0.336   0.327   0.326   0.316   0.315
 1980 060    59   626   240      3     20    112     0     0   199    0.00   0.0   0.0   0.00   0.122   0.267   0.312   0.336   0.336   0.327   0.326   0.316   0.315
 1980 061    60   626   240      3     20    112     0     0   199    0.00   0.0   0.0   0.00   0.119   0.265   0.311   0.336   0.336   0.327   0.326   0.316   0.315
 1980 062    61   641   255      3     20    128     0     0   199    0.00   0.0   0.0   0.25   0.347   0.299   0.313   0.336   0.336   0.327   0.326   0.316   0.315
 1980 063    62   640   254      3     21    131     0     0   199    0.00   0.0   0.0   0.00   0.296   0.312   0.319   0.336   0.336   0.326   0.326   0.315   0.315
 1980 064    63   635   249      3     23    131     0     0   199    0.00   0.0   0.0   0.00   0.212   0.305   0.318   0.336   0.336   0.326   0.326   0.315   0.315
 1980 065    64   647   262      5     23    150     0     0   199    0.00   0.0   0.0   1.70   0.262   0.350   0.336   0.345   0.341   0.328   0.327   0.316   0.315
 1980 066    65   664   279     10     24    177     0     0   199    0.00   0.0   0.0   5.40   0.287   0.361   0.374   0.372   0.356   0.334   0.331   0.316   0.315
 1980 067    66   674   289     12     25    195     0     0   199    0.00   0.0   0.0   1.97   0.285   0.363   0.374   0.387   0.376   0.345   0.338   0.317   0.316
 1980 068    67   669   283     12     28    195     0     0   198    0.00   0.0   0.0   0.00   0.214   0.333   0.357   0.381   0.378   0.351   0.344   0.319   0.318
 1980 069    68   647   261     12     47    195     0     0   199    0.00   0.0   0.0   0.00   0.166   0.311   0.336   0.357   0.356   0.338   0.334   0.316   0.315
 1980 070    69   644   258     12     48    196     0     0   199    0.00   0.0   0.0   0.00   0.149   0.298   0.328   0.352   0.354   0.338   0.336   0.317   0.316
 1980 071    70   641   255     12     50    196     0     0   198    0.00   0.0   0.0   0.00   0.140   0.292   0.322   0.346   0.350   0.337   0.337   0.318   0.317
 1980 072    71   649   263     12     52    208     0     0   198    0.00   0.0   0.0   0.03   0.309   0.302   0.321   0.343   0.346   0.335   0.336   0.318   0.317
 1980 073    72   652   266     12     55    218     0     0   198    0.00   0.0   0.0   0.21   0.269   0.336   0.331   0.346   0.346   0.334   0.335   0.318   0.317
 1980 074    73   647   262     12     57    219     0     0   198    0.00   0.0   0.0   0.00   0.213   0.318   0.331   0.347   0.347   0.334   0.334   0.317   0.317
 1980 075    74   636   250     12     65    219     0     0   199    0.00   0.0   0.0   0.00   0.167   0.303   0.323   0.341   0.340   0.329   0.329   0.315   0.315
 1980 076    75   632   246     12     68    219     0     0   199    0.00   0.0   0.0   0.00   0.151   0.295   0.320   0.337   0.337   0.326   0.327   0.315   0.315
 1980 077    76   630   244     12     69    219     0     0   199    0.00   0.0   0.0   0.00   0.141   0.289   0.317   0.336   0.336   0.326   0.327   0.315   0.315
 1980 078    77   629   243     12     69    220     0     0   199    0.00   0.0   0.0   0.00   0.133   0.285   0.317   0.336   0.336   0.326   0.327   0.315   0.315
 1980 079    78   628   243     12     69    220     0     0   199    0.00   0.0   0.0   0.00   0.126   0.281   0.316   0.336   0.336   0.326   0.327   0.315   0.315
 1980 080    79   628   242     12     69    220     0     0   199    0.00   0.0   0.0   0.00   0.120   0.277   0.315   0.336   0.336   0.326   0.327   0.315   0.315
 1980 081    80   627   241     12     69    220     0     0   199    0.00   0.0   0.0   0.00   0.115   0.275   0.315   0.336   0.336   0.326   0.327   0.315   0.315
 1980 082    81   626   241     12     69    220     0     0   199    0.00   0.0   0.0   0.00   0.111   0.272   0.314   0.336   0.336   0.326   0.327   0.315   0.315
 1980 083    82   630   244     12     69    224     0     0   199    0.00   0.0   0.0   0.00   0.190   0.270   0.313   0.335   0.336   0.326   0.327   0.315   0.315
 1980 084    83   635   249     12     69    231     0     0   199    0.00   0.0   0.0   0.00   0.261   0.283   0.312   0.335   0.336   0.326   0.327   0.315   0.315
 1980 085    84   643   257     13     70    243     0     0   199    0.00   0.0   0.0   0.29   0.307   0.327   0.323   0.338   0.337   0.326   0.326   0.315   0.315
 1980 086    85   661   275     18     71    270     0     0   199    0.00   0.0   0.0   5.25   0.314   0.363   0.369   0.362   0.350   0.331   0.329   0.315   0.315
 1980 087    86   660   274     18     72    272     0     0   199    0.00   0.0   0.0   0.00   0.280   0.339   0.356   0.368   0.359   0.337   0.333   0.316   0.315
 1980 088    87   662   276     18     73    278     0     0   199    0.00   0.0   0.0   0.00   0.302   0.332   0.348   0.367   0.363   0.341   0.337   0.317   0.316
 1980 089    88   658   273     18     75    279     0     0   198    0.00   0.0   0.0   0.00   0.246   0.321   0.339   0.362   0.363   0.343   0.340   0.318   0.317
 1980 090    89   643   257     18     88    279     0     0   199    0.00   0.0   0.0   0.00   0.197   0.307   0.328   0.348   0.348   0.334   0.332   0.316   0.315
 1980 091    90   634   249     18     94    279     0     0   199    0.00   0.0   0.0   0.00   0.149   0.297   0.322   0.341   0.341   0.329   0.328   0.316   0.315
 1980 092    91   631   245     18     96    279     0     0   199    0.00   0.0   0.0   0.00   0.132   0.291   0.319   0.338   0.338   0.326   0.326   0.316   0.315
 1980 093    92   629   243     18     97    279     0     0   199    0.00   0.0   0.0   0.00   0.121   0.286   0.318   0.336   0.336   0.326   0.326   0.316   0.315
 1980 094    93   628   242     18     97    279     0     0   199    0.00   0.0   0.0   0.00   0.113   0.282   0.318   0.336   0.336   0.326   0.326   0.316   0.315
 1980 095    94   628   242     18     97    279     0     0   199    0.00   0.0   0.0   0.00   0.112   0.279   0.317   0.336   0.336   0.326   0.326   0.316   0.315
 1980 096    95   627   241     18     97    279     0     0   199    0.00   0.0   0.0   0.00   0.111   0.276   0.316   0.336   0.336   0.326   0.326   0.316   0.315
 1980 097    96   627   241     18     97    279     0     0   199    0.00   0.0   0.0   0.00   0.111   0.273   0.315   0.336   0.336   0.326   0.326   0.316   0.315
 1980 098    97   626   241     18     97    279     0     0   199    0.00   0.0   0.0   0.00   0.110   0.271   0.314   0.336   0.336   0.326   0.326   0.316   0.315
 1980 099    98   631   246     18     97    285     0     0   199    0.00   0.0   0.0   0.00   0.222   0.269   0.313   0.336   0.336   0.326   0.326   0.316   0.315
 1980 100    99   635   249     18     97    291     0     0   199    0.00   0.0   0.0   0.00   0.257   0.285   0.312   0.335   0.336   0.326   0.326   0.316   0.315
 1980 101   100   651   265     20     98    313     0     0   199    0.00   0.0   0.0   2.50   0.315   0.361   0.335   0.344   0.340   0.327   0.327   0.315   0.315
 1980 102   101   675   289     36     99    356     0     0   199    0.00   0.0   0.0  15.25   0.312   0.363   0.374   0.387   0.382   0.344   0.335   0.316   0.316
 1980 103   102   693   308     44    102    387     0     0   197    0.00   0.0   0.0   8.30   0.324   0.363   0.374   0.387   0.387   0.380   0.362   0.322   0.319
 1980 104   103   662   276     44    132    387     0     0   199    0.00   0.0   0.0   0.00   0.260   0.330   0.345   0.360   0.360   0.352   0.343   0.318   0.316
 1980 105   104   646   261     44    145    387     0     0   199    0.00   0.0   0.0   0.00   0.229   0.312   0.331   0.347   0.347   0.338   0.334   0.315   0.316
 1980 106   105   643   258     44    147    388     0     0   199    0.00   0.0   0.0   0.00   0.208   0.301   0.326   0.345   0.346   0.336   0.335   0.316   0.316
 1980 107   106   634   249     44    153    388     0     0   199    0.00   0.0   0.0   0.00   0.171   0.295   0.321   0.340   0.340   0.330   0.329   0.315   0.315
 1980 108   107   635   249     44    154    391     0     0   199    0.00   0.0   0.0   0.00   0.204   0.290   0.318   0.338   0.339   0.329   0.329   0.315   0.315
 1980 109   108   648   262     45    155    408     0     0   199    0.00   0.0   0.0   0.85   0.332   0.332   0.329   0.343   0.341   0.329   0.329   0.315   0.315
 1980 110   109   661   276     47    156    426     0     0   199    0.00   0.0   0.0   2.52   0.325   0.363   0.361   0.361   0.351   0.333   0.331   0.315   0.315
 1980 111   110   673   287     50    157    444     0     0   199    0.00   0.0   0.0   2.50   0.314   0.363   0.374   0.386   0.369   0.341   0.336   0.317   0.316
 1980 112   111   671   285     50    159    446     0     0   198    0.00   0.0   0.0   0.00   0.271   0.340   0.359   0.382   0.375   0.348   0.342   0.318   0.317
 1980 113   112   665   279     50    162    447     0     0   198    0.00   0.0   0.0   0.00   0.209   0.318   0.345   0.372   0.374   0.351   0.346   0.320   0.319
 1980 114   113   646   260     50    179    447     0     0   199    0.00   0.0   0.0   0.00   0.183   0.303   0.330   0.353   0.354   0.337   0.335   0.317   0.316
 1980 115   114   646   260     50    181    452     0     0   198    0.00   0.0   0.0   0.00   0.233   0.295   0.324   0.348   0.351   0.337   0.336   0.317   0.317
 1980 116   115   643   258     50    183    453     0     0   198    0.00   0.0   0.0   0.00   0.226   0.292   0.320   0.343   0.347   0.335   0.336   0.317   0.317
 1980 117   116   635   249     50    189    453     0     0   199    0.00   0.0   0.0   0.00   0.183   0.289   0.318   0.338   0.340   0.330   0.330   0.315   0.315
 1980 118   117   631   245     50    191    453     0     0   199    0.00   0.0   0.0   0.00   0.160   0.285   0.317   0.336   0.337   0.327   0.327   0.315   0.315
 1980 119   118   630   244     50    192    453     0     0   199    0.00   0.0   0.0   0.00   0.146   0.282   0.316   0.336   0.336   0.327   0.327   0.315   0.315
 1980 120   119   629   243     50    192    453     0     0   199    0.00   0.0   0.0   0.00   0.135   0.278   0.316   0.336   0.336   0.327   0.327   0.315   0.315
 1980 121   120   628   242     50    192    454     0     0   199    0.00   0.0   0.0   0.00   0.133   0.275   0.315   0.336   0.336   0.327   0.327   0.315   0.315
 1980 122   121   628   242     50    192    455     0     0   199    0.00   0.0   0.0   0.00   0.145   0.273   0.314   0.336   0.336   0.327   0.327   0.315   0.315
 1980 123   122   627   242     50    192    455     0     0   199    0.00   0.0   0.0   0.00   0.136   0.270   0.313   0.336   0.336   0.327   0.327   0.315   0.315
 1980 124   123   627   241     50    192    455     0     0   199    0.00   0.0   0.0   0.00   0.128   0.268   0.312   0.336   0.336   0.327   0.327   0.315   0.315
 1980 125   124   626   240     50    192    456     0     0   199    0.00   0.0   0.0   0.00   0.121   0.266   0.312   0.336   0.336   0.327   0.327   0.315   0.315
 1980 126   125   625   240     50    192    456     0     0   199    0.00   0.0   0.0   0.00   0.117   0.264   0.311   0.335   0.336   0.327   0.327   0.315   0.315
 1980 127   126   625   239     50    192    456     0     0   199    0.00   0.0   0.0   0.00   0.111   0.263   0.310   0.335   0.336   0.327   0.327   0.315   0.315
 1980 128   127   626   240     50    192    458     0     0   199    0.00   0.0   0.0   0.00   0.139   0.261   0.309   0.335   0.336   0.327   0.327   0.315   0.315
 1980 129   128   625   240     50    192    458     0     0   199    0.00   0.0   0.0   0.00   0.132   0.260   0.308   0.335   0.336   0.327   0.327   0.315   0.315
 1980 130   129   629   243     50    192    463     0     0   199    0.00   0.0   0.0   0.00   0.216   0.258   0.308   0.334   0.336   0.327   0.327   0.315   0.315
 1980 131   130   631   245     50    192    466     0     0   199    0.00   0.0   0.0   0.00   0.246   0.259   0.307   0.334   0.336   0.327   0.327   0.315   0.315
 1980 132   131   629   244     50    192    466     0     0   199    0.00   0.0   0.0   0.00   0.222   0.260   0.307   0.334   0.336   0.327   0.327   0.315   0.315
 1980 133   132   628   243     50    192    466     0     0   199    0.00   0.0   0.0   0.00   0.205   0.261   0.306   0.334   0.336   0.327   0.327   0.315   0.315
 1980 134   133   628   242     50    192    466     0     0   199    0.00   0.0   0.0   0.00   0.191   0.260   0.306   0.333   0.336   0.327   0.327   0.315   0.315
 1980 135   134   627   241     50    192    466     0     0   199    0.00   0.0   0.0   0.00   0.180   0.259   0.305   0.333   0.336   0.327   0.327   0.315   0.315
 1980 136   135   626   240     50    192    467     0     0   199    0.00   0.0   0.0   0.00   0.171   0.258   0.305   0.333   0.335   0.327   0.327   0.315   0.315
 1980 137   136   628   243     50    192    470     0     0   199    0.00   0.0   0.0   0.00   0.220   0.257   0.304   0.332   0.335   0.327   0.327   0.315   0.315
 1980 138   137   628   242     50    192    470     0     0   199    0.00   0.0   0.0   0.00   0.205   0.258   0.304   0.332   0.335   0.327   0.327   0.315   0.315
 1980 139   138   627   241     50    192    470     0     0   199    0.00   0.0   0.0   0.00   0.193   0.257   0.303   0.332   0.335   0.327   0.327   0.315   0.315
 1980 140   139   626   240     50    192    470     0     0   199    0.00   0.0   0.0   0.00   0.183   0.257   0.303   0.332   0.335   0.327   0.327   0.315   0.315
 1980 141   140   626   241     50    192    472     0     0   199    0.00   0.0   0.0   0.00   0.193   0.256   0.302   0.331   0.335   0.327   0.327   0.315   0.315
 1980 142   141   628   243     50    192    475     0     0   199    0.00   0.0   0.0   0.00   0.236   0.255   0.302   0.331   0.335   0.327   0.327   0.315   0.315
 1980 143   142   641   255     50    192    489     0     0   199    0.00   0.0   0.0   0.33   0.330   0.315   0.312   0.331   0.335   0.327   0.327   0.315   0.315
 1980 144   143   638   252     50    193    489     0     0   199    0.00   0.0   0.0   0.00   0.273   0.306   0.316   0.334   0.335   0.327   0.327   0.315   0.315
 1980 145   144   636   251     50    193    489     0     0   199    0.00   0.0   0.0   0.00   0.241   0.302   0.319   0.334   0.335   0.327   0.327   0.315   0.315
 1980 146   145   635   249     50    193    489     0     0   199    0.00   0.0   0.0   0.00   0.221   0.297   0.319   0.334   0.335   0.327   0.327   0.315   0.315
 1980 147   146   634   248     50    193    489     0     0   199    0.00   0.0   0.0   0.00   0.208   0.293   0.319   0.334   0.335   0.327   0.327   0.315   0.315
 1980 148   147   632   246     50    193    489     0     0   199    0.00   0.0   0.0   0.00   0.184   0.289   0.318   0.334   0.335   0.327   0.327   0.315   0.315
 1980 149   148   632   246     50    193    490     0     0   199    0.00   0.0   0.0   0.00   0.196   0.285   0.318   0.334   0.335   0.327   0.327   0.315   0.315
 1980 150   149   638   252     50    193    497     0     0   199    0.00   0.0   0.0   0.00   0.289   0.294   0.317   0.334   0.335   0.327   0.327   0.315   0.315
 1980 151   150   655   269     54    194    521     0     0   199    0.00   0.0   0.0   3.77   0.324   0.363   0.349   0.351   0.343   0.329   0.328   0.315   0.315
 1980 152   151   662   277     55    195    531     0     0   199    0.00   0.0   0.0   0.53   0.333   0.363   0.359   0.364   0.353   0.334   0.331   0.315   0.315
 1980 153   152   674   289     57    196    548     0     0   199    0.00   0.0   0.0   2.23   0.333   0.363   0.374   0.386   0.370   0.342   0.336   0.317   0.316
 1980 154   153   671   285     57    198    548     0     0   198    0.00   0.0   0.0   0.00   0.286   0.337   0.358   0.381   0.375   0.349   0.343   0.319   0.317
 1980 155   154   651   265     57    217    548     0     0   199    0.00   0.0   0.0   0.00   0.254   0.317   0.337   0.357   0.355   0.336   0.333   0.316   0.315
 1980 156   155   641   256     57    225    548     0     0   199    0.00   0.0   0.0   0.00   0.225   0.305   0.326   0.346   0.344   0.330   0.329   0.316   0.315
 1980 157   156   636   251     57    229    548     0     0   199    0.00   0.0   0.0   0.00   0.209   0.297   0.321   0.340   0.339   0.327   0.326   0.316   0.315
 1980 158   157   633   248     57    230    548     0     0   199    0.00   0.0   0.0   0.00   0.191   0.293   0.318   0.337   0.337   0.326   0.326   0.316   0.315
 1980 159   158   632   247     57    230    548     0     0   199    0.00   0.0   0.0   0.00   0.177   0.288   0.318   0.337   0.337   0.326   0.326   0.316   0.315
 1980 160   159   631   245     57    230    548     0     0   199    0.00   0.0   0.0   0.00   0.159   0.284   0.317   0.337   0.337   0.326   0.326   0.316   0.315
 1980 161   160   636   250     57    230    554     0     0   199    0.00   0.0   0.0   0.00   0.264   0.282   0.317   0.337   0.337   0.326   0.326   0.316   0.315
 1980 162   161   657   271     62    231    583     0     0   199    0.00   0.0   0.0   5.24   0.333   0.364   0.350   0.353   0.345   0.329   0.328   0.315   0.315
 1980 163   162   673   288     67    233    607     0     0   199    0.00   0.0   0.0   5.26   0.335   0.363   0.374   0.387   0.371   0.340   0.334   0.316   0.316
 1980 164   163   678   293     68    235    615     0     0   198    0.00   0.0   0.0   0.27   0.337   0.363   0.367   0.386   0.379   0.349   0.341   0.318   0.317
 1980 165   164   683   298     68    237    624     0     0   198    0.00   0.0   0.0   0.41   0.338   0.363   0.367   0.386   0.382   0.354   0.348   0.320   0.319
 1980 166   165   683   297     68    241    629     0     0   197    0.00   0.0   0.0   0.01   0.333   0.348   0.358   0.381   0.381   0.357   0.352   0.322   0.320
 1980 167   166   657   271     68    266    629     0     0   198    0.00   0.0   0.0   0.00   0.279   0.323   0.337   0.357   0.358   0.341   0.338   0.318   0.317
 1980 168   167   644   258     68    277    629     0     0   199    0.00   0.0   0.0   0.00   0.253   0.311   0.327   0.346   0.346   0.332   0.331   0.315   0.315
 1980 169   168   638   253     68    282    629     0     0   199    0.00   0.0   0.0   0.00   0.235   0.302   0.321   0.340   0.340   0.328   0.328   0.315   0.315
 1980 170   169   638   252     68    283    630     0     0   199    0.00   0.0   0.0   0.00   0.252   0.296   0.319   0.339   0.339   0.328   0.328   0.315   0.315
 1980 171   170   647   261     68    284    642     0     0   199    0.00   0.0   0.0   0.19   0.343   0.324   0.327   0.342   0.341   0.328   0.328   0.315   0.315
 1980 172   171   641   255     68    289    642     0     0   199    0.00   0.0   0.0   0.00   0.293   0.311   0.321   0.338   0.337   0.326   0.326   0.315   0.315
 1980 173   172   637   252     68    291    642     0     0   199    0.00   0.0   0.0   0.00   0.261   0.305   0.319   0.336   0.336   0.326   0.326   0.315   0.315
 1980 174   173   636   250     68    292    642     0     0   199    0.00   0.0   0.0   0.00   0.242   0.300   0.319   0.336   0.336   0.326   0.326   0.315   0.315
 1980 175   174   635   249     68    292    642     0     0   199    0.00   0.0   0.0   0.00   0.223   0.296   0.319   0.336   0.336   0.326   0.326   0.315   0.315
 1980 176   175   640   255     68    292    648     0     0   199    0.00   0.0   0.0   0.00   0.313   0.302   0.320   0.337   0.336   0.326   0.326   0.316   0.315
 1980 177   176   649   263     68    293    659     0     0   199    0.00   0.0   0.0   0.27   0.338   0.339   0.331   0.343   0.340   0.327   0.327   0.315   0.315
 1980 178   177   647   261     68    293    659     0     0   199    0.00   0.0   0.0   0.00   0.289   0.325   0.333   0.347   0.343   0.329   0.328   0.315   0.315
 1980 179   178   639   254     68    299    659     0     0   199    0.00   0.0   0.0   0.00   0.251   0.312   0.324   0.341   0.339   0.327   0.326   0.315   0.315
 1980 180   179   636   250     68    301    659     0     0   199    0.00   0.0   0.0   0.00   0.229   0.302   0.320   0.337   0.336   0.327   0.326   0.315   0.315
 1980 181   180   638   252     68    301    662     0     0   199    0.00   0.0   0.0   0.00   0.274   0.298   0.319   0.337   0.337   0.326   0.326   0.316   0.315
 1980 182   181   659   273     74    302    690     0     0   199    0.00   0.0   0.0   5.47   0.337   0.362   0.358   0.357   0.347   0.330   0.328   0.315   0.315
 1980 183   182   660   275     74    303    694     0     0   199    0.00   0.0   0.0   0.00   0.328   0.344   0.352   0.364   0.355   0.335   0.331   0.316   0.315
 1980 184   183   647   261     74    315    694     0     0   199    0.00   0.0   0.0   0.00   0.278   0.321   0.334   0.349   0.345   0.329   0.328   0.316   0.315
 1980 185   184   641   255     74    320    694     0     0   199    0.00   0.0   0.0   0.00   0.262   0.309   0.325   0.341   0.339   0.327   0.326   0.316   0.315
 1980 186   185   637   252     74    323    694     0     0   199    0.00   0.0   0.0   0.00   0.241   0.302   0.321   0.338   0.337   0.327   0.326   0.316   0.315
 1980 187   186   636   251     74    324    695     0     0   199    0.00   0.0   0.0   0.00   0.246   0.297   0.319   0.337   0.337   0.326   0.326   0.315   0.315
 1980 188   187   635   250     74    324    695     0     0   199    0.00   0.0   0.0   0.00   0.232   0.294   0.319   0.336   0.336   0.326   0.326   0.316   0.315
 1980 189   188   646   260     74    325    708     0     0   199    0.00   0.0   0.0   0.30   0.339   0.324   0.327   0.340   0.338   0.327   0.326   0.315   0.315
 1980 190   189   660   274     77    326    728     0     0   199    0.00   0.0   0.0   2.83   0.335   0.363   0.361   0.360   0.349   0.331   0.329   0.315   0.315
 1980 191   190   666   280     77    327    737     0     0   199    0.00   0.0   0.0   0.41   0.327   0.363   0.364   0.371   0.360   0.337   0.333   0.316   0.315
 1980 192   191   650   264     77    342    737     0     0   199    0.00   0.0   0.0   0.00   0.277   0.330   0.340   0.352   0.347   0.331   0.328   0.316   0.315
 1980 193   192   642   256     77    348    737     0     0   199    0.00   0.0   0.0   0.00   0.247   0.314   0.328   0.343   0.340   0.327   0.326   0.316   0.315
 1980 194   193   637   252     77    352    737     0     0   199    0.00   0.0   0.0   0.00   0.228   0.303   0.322   0.339   0.337   0.326   0.326   0.316   0.315
 1980 195   194   635   249     77    353    737     0     0   199    0.00   0.0   0.0   0.00   0.219   0.297   0.319   0.336   0.336   0.326   0.326   0.316   0.315
 1980 196   195   634   248     77    353    737     0     0   199    0.00   0.0   0.0   0.00   0.204   0.293   0.319   0.336   0.336   0.326   0.326   0.316   0.315
 1980 197   196   632   247     77    353    737     0     0   199    0.00   0.0   0.0   0.00   0.185   0.289   0.318   0.336   0.336   0.326   0.326   0.316   0.315
 1980 198   197   631   245     77    353    737     0     0   199    0.00   0.0   0.0   0.00   0.163   0.285   0.318   0.336   0.336   0.326   0.326   0.316   0.315
 1980 199   198   630   244     77    353    737     0     0   199    0.00   0.0   0.0   0.00   0.149   0.281   0.317   0.336   0.336   0.326   0.326   0.316   0.315
 1980 200   199   629   243     77    353    737     0     0   199    0.00   0.0   0.0   0.00   0.138   0.278   0.316   0.336   0.336   0.326   0.326   0.316   0.315
 1980 201   200   628   242     77    353    737     0     0   199    0.00   0.0   0.0   0.00   0.130   0.275   0.315   0.336   0.336   0.326   0.326   0.316   0.315
 1980 202   201   630   245     77    353    740     0     0   199    0.00   0.0   0.0   0.00   0.187   0.272   0.315   0.336   0.336   0.326   0.326   0.316   0.315
 1980 203   202   635   249     77    353    746     0     0   199    0.00   0.0   0.0   0.00   0.275   0.276   0.314   0.336   0.336   0.326   0.326   0.316   0.315
 1980 204   203   633   248     77    353    746     0     0   199    0.00   0.0   0.0   0.00   0.241   0.278   0.313   0.336   0.336   0.326   0.326   0.316   0.315
 1980 205   204   632   246     77    353    746     0     0   199    0.00   0.0   0.0   0.00   0.213   0.278   0.313   0.336   0.336   0.326   0.326   0.316   0.315
 1980 206   205   630   245     77    353    746     0     0   199    0.00   0.0   0.0   0.00   0.189   0.276   0.312   0.336   0.336   0.326   0.326   0.316   0.315
 1980 207   206   636   250     77    353    753     0     0   199    0.00   0.0   0.0   0.00   0.279   0.285   0.312   0.336   0.336   0.326   0.326   0.316   0.315
 1980 208   207   651   265     79    354    772     0     0   199    0.00   0.0   0.0   1.95   0.328   0.360   0.334   0.344   0.340   0.327   0.327   0.315   0.315
 1980 209   208   650   265     79    355    774     0     0   199    0.00   0.0   0.0   0.00   0.298   0.340   0.339   0.350   0.345   0.330   0.328   0.315   0.315
 1980 210   209   648   263     79    356    775     0     0   199    0.00   0.0   0.0   0.00   0.266   0.321   0.335   0.352   0.348   0.332   0.330   0.315   0.315
 1980 211   210   648   262     79    357    776     0     0   199    0.00   0.0   0.0   0.00   0.271   0.311   0.330   0.350   0.349   0.334   0.332   0.316   0.315
 1980 212   211   641   255     79    363    776     0     0   199    0.00   0.0   0.0   0.00   0.250   0.304   0.323   0.342   0.342   0.329   0.328   0.316   0.315
 1980 213   212   636   250     79    366    776     0     0   199    0.00   0.0   0.0   0.00   0.220   0.298   0.320   0.338   0.338   0.326   0.326   0.316   0.315
 1980 214   213   634   248     79    366    776     0     0   199    0.00   0.0   0.0   0.00   0.200   0.294   0.318   0.336   0.336   0.326   0.326   0.316   0.315
 1980 215   214   633   247     79    366    776     0     0   199    0.00   0.0   0.0   0.00   0.186   0.290   0.317   0.336   0.336   0.326   0.326   0.316   0.315
 1980 216   215   631   245     79    366    776     0     0   199    0.00   0.0   0.0   0.00   0.156   0.286   0.317   0.336   0.336   0.326   0.326   0.316   0.315
 1980 217   216   644   258     80    368    793     0     0   199    0.00   0.0   0.0   0.59   0.332   0.319   0.324   0.339   0.338   0.327   0.326   0.315   0.315
 1980 218   217   668   282     91    369    830     0     0   199    0.00   0.0   0.0  10.98   0.332   0.363   0.374   0.379   0.358   0.334   0.330   0.315   0.315
 1980 219   218   682   296     95    370    851     0     0   199    0.00   0.0   0.0   3.85   0.333   0.363   0.374   0.387   0.387   0.356   0.343   0.318   0.317
 1980 220   219   678   293     95    373    853     0     0   198    0.00   0.0   0.0   0.00   0.281   0.340   0.359   0.382   0.384   0.359   0.351   0.321   0.319
 1980 221   220   673   287     95    377    853     0     0   197    0.00   0.0   0.0   0.00   0.241   0.320   0.345   0.372   0.378   0.358   0.354   0.323   0.321
 1980 222   221   650   265     95    397    853     0     0   198    0.00   0.0   0.0   0.00   0.209   0.306   0.330   0.353   0.356   0.341   0.339   0.318   0.317
 1980 223   222   638   252     95    407    853     0     0   199    0.00   0.0   0.0   0.00   0.173   0.297   0.323   0.344   0.345   0.332   0.332   0.316   0.315
 1980 224   223   633   247     95    411    853     0     0   199    0.00   0.0   0.0   0.00   0.151   0.291   0.319   0.339   0.340   0.328   0.328   0.316   0.315
 1980 225   224   630   244     95    413    853     0     0   199    0.00   0.0   0.0   0.00   0.136   0.286   0.317   0.336   0.337   0.326   0.326   0.316   0.315
 1980 226   225   629   243     95    413    853     0     0   199    0.00   0.0   0.0   0.00   0.125   0.282   0.317   0.336   0.337   0.326   0.326   0.316   0.315
 1980 227   226   628   242     95    413    853     0     0   199    0.00   0.0   0.0   0.00   0.117   0.279   0.316   0.336   0.337   0.326   0.326   0.316   0.315
 1980 228   227   627   241     95    413    853     0     0   199    0.00   0.0   0.0   0.00   0.111   0.276   0.315   0.336   0.337   0.326   0.326   0.316   0.315
 1980 229   228   633   247     95    413    859     0     0   199    0.00   0.0   0.0   0.00   0.235   0.273   0.314   0.336   0.337   0.326   0.326   0.316   0.315
 1980 230   229   641   255     95    414    870     0     0   199    0.00   0.0   0.0   0.05   0.328   0.308   0.318   0.336   0.337   0.326   0.326   0.315   0.315
 1980 231   230   639   254     95    414    870     0     0   199    0.00   0.0   0.0   0.00   0.268   0.309   0.321   0.337   0.337   0.326   0.326   0.315   0.315
 1980 232   231   636   251     95    415    870     0     0   199    0.00   0.0   0.0   0.00   0.241   0.303   0.318   0.336   0.336   0.326   0.326   0.315   0.315
 1980 233   232   635   249     95    416    871     0     0   199    0.00   0.0   0.0   0.00   0.230   0.297   0.318   0.336   0.336   0.326   0.326   0.315   0.315
 1980 234   233   634   248     95    416    871     0     0   199    0.00   0.0   0.0   0.00   0.220   0.294   0.318   0.336   0.336   0.326   0.326   0.315   0.315
 1980 235   234   634   248     95    416    872     0     0   199    0.00   0.0   0.0   0.00   0.231   0.290   0.317   0.336   0.336   0.326   0.326   0.315   0.315
 1980 236   235   631   246     95    416    872     0     0   199    0.00   0.0   0.0   0.00   0.189   0.288   0.317   0.336   0.336   0.326   0.326   0.315   0.315
 1980 237   236   630   244     95    416    872     0     0   199    0.00   0.0   0.0   0.00   0.164   0.284   0.316   0.336   0.336   0.326   0.326   0.315   0.315
 1980 238   237   629   243     95    416    873     0     0   199    0.00   0.0   0.0   0.00   0.149   0.281   0.316   0.336   0.336   0.326   0.326   0.315   0.315
 1980 239   238   628   242     95    416    873     0     0   199    0.00   0.0   0.0   0.00   0.138   0.277   0.315   0.336   0.336   0.326   0.326   0.315   0.315
 1980 240   239   627   241     95    416    873     0     0   199    0.00   0.0   0.0   0.00   0.129   0.274   0.314   0.336   0.336   0.326   0.326   0.315   0.315
 1980 241   240   626   240     95    416    873     0     0   199    0.00   0.0   0.0   0.00   0.122   0.272   0.313   0.336   0.336   0.326   0.326   0.315   0.315
 1980 242   241   625   240     95    416    873     0     0   199    0.00   0.0   0.0   0.00   0.115   0.269   0.313   0.336   0.336   0.326   0.326   0.315   0.315
 1980 243   242   625   239     95    416    873     0     0   199    0.00   0.0   0.0   0.00   0.110   0.267   0.312   0.335   0.336   0.326   0.326   0.315   0.315
 1980 244   243   624   239     95    416    873     0     0   199    0.00   0.0   0.0   0.00   0.109   0.265   0.311   0.335   0.336   0.326   0.326   0.315   0.315
 1980 245   244   624   238     95    416    873     0     0   199    0.00   0.0   0.0   0.00   0.109   0.264   0.310   0.335   0.336   0.326   0.326   0.315   0.315
 1980 246   245   627   241     95    416    876     0     0   199    0.00   0.0   0.0   0.00   0.173   0.262   0.310   0.335   0.336   0.326   0.326   0.315   0.315
 1980 247   246   627   241     95    416    878     0     0   199    0.00   0.0   0.0   0.00   0.184   0.261   0.309   0.334   0.336   0.326   0.326   0.315   0.315
 1980 248   247   627   242     95    416    879     0     0   199    0.00   0.0   0.0   0.00   0.193   0.260   0.308   0.334   0.336   0.326   0.326   0.315   0.315
 1980 249   248   626   241     95    416    879     0     0   199    0.00   0.0   0.0   0.00   0.180   0.259   0.307   0.334   0.336   0.326   0.326   0.315   0.315
 1980 250   249   626   240     95    416    879     0     0   199    0.00   0.0   0.0   0.00   0.170   0.259   0.307   0.334   0.336   0.326   0.326   0.315   0.315
 1980 251   250   625   239     95    416    879     0     0   199    0.00   0.0   0.0   0.00   0.161   0.258   0.306   0.333   0.336   0.326   0.326   0.315   0.315
 1980 252   251   625   240     95    416    880     0     0   199    0.00   0.0   0.0   0.00   0.172   0.256   0.306   0.333   0.336   0.326   0.326   0.315   0.315
 1980 253   252   627   242     95    416    885     0     0   199    0.00   0.0   0.0   0.00   0.219   0.255   0.305   0.333   0.336   0.326   0.326   0.315   0.315
 1980 254   253   627   241     95    416    885     0     0   199    0.00   0.0   0.0   0.00   0.204   0.256   0.304   0.332   0.335   0.326   0.326   0.315   0.315
 1980 255   254   626   240     95    416    885     0     0   199    0.00   0.0   0.0   0.00   0.191   0.256   0.304   0.332   0.335   0.326   0.326   0.315   0.315
 1980 256   255   625   239     95    416    885     0     0   199    0.00   0.0   0.0   0.00   0.181   0.255   0.303   0.332   0.335   0.326   0.326   0.315   0.315
 1980 257   256   624   239     95    416    885     0     0   199    0.00   0.0   0.0   0.00   0.172   0.255   0.303   0.332   0.335   0.326   0.326   0.315   0.315
 1980 258   257   624   238     95    416    886     0     0   199    0.00   0.0   0.0   0.00   0.164   0.254   0.302   0.331   0.335   0.326   0.326   0.315   0.315
 1980 259   258   626   241     95    416    890     0     0   199    0.00   0.0   0.0   0.00   0.220   0.253   0.302   0.331   0.335   0.326   0.326   0.315   0.315
 1980 260   259   626   240     95    416    890     0     0   199    0.00   0.0   0.0   0.00   0.206   0.253   0.301   0.331   0.335   0.326   0.326   0.315   0.315
 1980 261   260   626   241     95    416    893     0     0   199    0.00   0.0   0.0   0.00   0.219   0.254   0.301   0.331   0.335   0.326   0.326   0.315   0.315
 1980 262   261   625   240     95    416    893     0     0   199    0.00   0.0   0.0   0.00   0.205   0.254   0.300   0.330   0.335   0.326   0.326   0.315   0.315
 1980 263   262   625   239     95    416    893     0     0   199    0.00   0.0   0.0   0.00   0.194   0.254   0.300   0.330   0.335   0.326   0.326   0.315   0.315
 1980 264   263   624   238     95    416    893     0     0   199    0.00   0.0   0.0   0.00   0.185   0.254   0.300   0.330   0.334   0.326   0.326   0.315   0.315
 1980 265   264   624   238     95    416    893     0     0   199    0.00   0.0   0.0   0.00   0.177   0.253   0.299   0.330   0.334   0.326   0.326   0.315   0.315
 1980 266   265   623   237     95    416    893     0     0   199    0.00   0.0   0.0   0.00   0.170   0.252   0.299   0.329   0.334   0.326   0.326   0.315   0.315
 1980 267   266   622   237     95    416    893     0     0   199    0.00   0.0   0.0   0.00   0.163   0.251   0.299   0.329   0.334   0.326   0.326   0.315   0.315
 1980 268   267   622   236     95    416    893     0     0   199    0.00   0.0   0.0   0.00   0.157   0.250   0.298   0.329   0.334   0.326   0.326   0.315   0.315
 1980 269   268   621   236     95    416    893     0     0   199    0.00   0.0   0.0   0.00   0.152   0.249   0.298   0.329   0.334   0.326   0.326   0.315   0.315
 1980 270   269   621   235     95    416    893     0     0   199    0.00   0.0   0.0   0.00   0.147   0.248   0.297   0.329   0.333   0.326   0.326   0.315   0.315
 1980 271   270   621   235     95    416    893     0     0   199    0.00   0.0   0.0   0.00   0.142   0.247   0.297   0.328   0.333   0.326   0.326   0.315   0.315
 1980 272   271   620   234     95    416    893     0     0   199    0.00   0.0   0.0   0.00   0.137   0.246   0.297   0.328   0.333   0.326   0.326   0.315   0.315
 1980 273   272   624   238     95    416    898     0     0   199    0.00   0.0   0.0   0.00   0.215   0.246   0.296   0.328   0.333   0.326   0.326   0.315   0.315
 1980 274   273   623   238     95    416    898     0     0   199    0.00   0.0   0.0   0.00   0.204   0.246   0.296   0.328   0.333   0.326   0.326   0.315   0.315
 1980 275   274   624   238     95    416    900     0     0   199    0.00   0.0   0.0   0.00   0.215   0.247   0.295   0.327   0.333   0.326   0.326   0.315   0.315
 1980 276   275   639   253     96    416    919     0     0   199    0.00   0.0   0.0   1.11   0.309   0.326   0.313   0.327   0.332   0.326   0.326   0.315   0.315
 1980 277   276   654   268     99    416    939     0     0   199    0.00   0.0   0.0   2.64   0.314   0.362   0.350   0.348   0.340   0.327   0.326   0.316   0.315
 1980 278   277   682   296    122    418    994     0     0   199    0.00   0.0   0.0  23.11   0.319   0.363   0.374   0.387   0.387   0.359   0.343   0.318   0.316
 1980 279   278   675   290    122    421    994     0     0   198    0.00   0.0   0.0   0.00   0.228   0.335   0.357   0.381   0.384   0.360   0.351   0.321   0.319
 1980 280   279   651   266    122    443    994     0     0   199    0.00   0.0   0.0   0.00   0.194   0.312   0.337   0.357   0.359   0.342   0.338   0.317   0.316
 1980 281   280   639   253    122    453    994     0     0   199    0.00   0.0   0.0   0.00   0.160   0.300   0.326   0.346   0.346   0.333   0.331   0.315   0.316
 1980 282   281   638   252    122    454    995     0     0   199    0.00   0.0   0.0   0.00   0.180   0.294   0.321   0.342   0.344   0.332   0.332   0.316   0.316
 1980 283   282   638   253    122    455    999     0     0   199    0.00   0.0   0.0   0.00   0.226   0.289   0.318   0.339   0.342   0.331   0.331   0.316   0.316
 1980 284   283   635   249    122    457    999     0     0   199    0.00   0.0   0.0   0.00   0.189   0.287   0.318   0.337   0.339   0.330   0.331   0.316   0.316
 1980 285   284   632   246    122    458    999     0     0   199    0.00   0.0   0.0   0.00   0.171   0.283   0.317   0.337   0.337   0.327   0.327   0.316   0.316
 1980 286   285   631   245    122    459    999     0     0   199    0.00   0.0   0.0   0.00   0.158   0.280   0.316   0.337   0.337   0.327   0.326   0.316   0.316
 1980 287   286   630   244    122    459    999     0     0   199    0.00   0.0   0.0   0.00   0.149   0.277   0.315   0.337   0.337   0.327   0.326   0.316   0.316
 1980 288   287   638   252    122    459    999     1    11   199    0.00   0.0   0.0   0.00   0.285   0.292   0.315   0.337   0.337   0.327   0.326   0.316   0.316
 1980 289   288   634   248    122    459    999     1    11   199    0.00   0.0   0.0   0.00   0.249   0.293   0.313   0.335   0.335   0.325   0.324   0.314   0.316
 1980 290   289   630   244    122    459    999     1    11   199    0.00   0.0   0.0   0.00   0.214   0.290   0.312   0.334   0.334   0.324   0.323   0.313   0.315
 1980 291   290   627   241    122    459    999     1    11   199    0.00   0.0   0.0   0.00   0.188   0.285   0.310   0.332   0.333   0.323   0.322   0.312   0.315
 1980 292   291   625   239    122    459    999     1    11   199    0.00   0.0   0.0   0.00   0.178   0.280   0.309   0.331   0.332   0.322   0.321   0.311   0.315
 1980 293   292   622   237    122    459   1000     1    11   199    0.01   0.0   0.0   0.00   0.170   0.276   0.308   0.330   0.331   0.321   0.320   0.310   0.315
 1980 294   293   622   236    122    459   1001     1    11   199    0.04   0.0   0.0   0.00   0.183   0.272   0.306   0.329   0.330   0.320   0.319   0.310   0.315
 1980 295   294   619   234    122    459   1001     1    11   199    0.04   0.0   0.0   0.00   0.171   0.269   0.305   0.328   0.329   0.319   0.319   0.309   0.315
 1980 296   295   619   233    122    459   1002     1    11   199    0.05   0.0   0.0   0.00   0.195   0.265   0.303   0.327   0.328   0.318   0.318   0.308   0.315
 1980 297   296   616   230    122    459   1002     1    11   199    0.05   0.0   0.0   0.00   0.179   0.262   0.301   0.325   0.326   0.317   0.316   0.307   0.315
 1980 298   297   612   227    122    459   1002     1    11   199    0.05   0.0   0.0   0.00   0.167   0.259   0.298   0.323   0.324   0.316   0.315   0.306   0.314
 1980 299   298   609   223    122    459   1002     1    11   199    0.04   0.0   0.0   0.00   0.156   0.255   0.296   0.321   0.322   0.314   0.313   0.305   0.314
 1980 300   299   607   221    122    459   1003     1    11   200    0.08   0.0   0.0   0.00   0.157   0.251   0.294   0.319   0.321   0.313   0.312   0.304   0.314
 1980 301   300   608   222    122    459   1006     1    11   200    0.08   0.0   0.0   0.00   0.209   0.249   0.292   0.318   0.320   0.312   0.311   0.303   0.314
 1980 302   301   604   219    122    459   1006     1    11   200    0.08   0.0   0.0   0.00   0.191   0.246   0.289   0.316   0.318   0.310   0.310   0.302   0.314
 1980 303   302   612   226    122    459   1017     1    11   200    0.11   0.0   0.0   0.00   0.330   0.271   0.287   0.314   0.316   0.309   0.308   0.301   0.313
 1980 304   303   612   226    122    459   1020     1    11   200    0.12   0.0   0.0   0.00   0.324   0.298   0.285   0.312   0.314   0.307   0.307   0.300   0.313
 1980 305   304   611   226    122    459   1024     1    11   200    0.13   0.0   0.0   0.00   0.318   0.306   0.292   0.310   0.312   0.305   0.305   0.299   0.313
 1980 306   305   607   222    122    459   1024     1    11   200    0.12   0.0   0.0   0.00   0.277   0.298   0.299   0.307   0.310   0.304   0.304   0.297   0.313
 1980 307   306   603   217    122    459   1024     1    11   200    0.10   0.0   0.0   0.00   0.254   0.294   0.296   0.305   0.307   0.302   0.302   0.296   0.312
 1980 308   307   598   213    122    459   1024     1    11   200    0.09   0.0   0.0   0.00   0.234   0.288   0.293   0.303   0.304   0.299   0.300   0.294   0.312
 1980 309   308   594   208    122    459   1024     1    11   200    0.08   0.0   0.0   0.00   0.216   0.281   0.290   0.300   0.302   0.297   0.298   0.293   0.312
 1980 310   309   595   209    122    459   1027     1    11   200    0.18   0.0   0.0   0.00   0.276   0.277   0.288   0.298   0.300   0.296   0.296   0.292   0.311
 1980 311   310   594   208    122    459   1028     1    11   200    0.17   0.0   0.0   0.00   0.279   0.281   0.287   0.297   0.299   0.295   0.295   0.292   0.311
 1980 312   311   591   205    122    459   1028     1    11   200    0.19   0.0   0.0   0.00   0.265   0.280   0.284   0.296   0.297   0.293   0.294   0.291   0.311
 1980 313   312   589   204    122    459   1030     1    11   200    0.21   0.0   0.0   0.00   0.274   0.280   0.282   0.294   0.295   0.292   0.293   0.290   0.310
 1980 314   313   591   206    122    459   1034     1    11   200    0.22   0.0   0.0   0.00   0.313   0.297   0.281   0.292   0.293   0.291   0.291   0.289   0.310
 1980 315   314   595   209    122    459   1040     1    11   200    0.24   0.0   0.0   0.00   0.349   0.311   0.291   0.291   0.292   0.289   0.290   0.288   0.310
 1980 316   315   592   206    122    459   1041     1    11   200    0.24   0.0   0.0   0.00   0.310   0.309   0.299   0.289   0.290   0.288   0.289   0.287   0.309
 1980 317   316   588   202    122    459   1041     1    11   200    0.19   0.0   0.0   0.00   0.281   0.299   0.305   0.287   0.287   0.286   0.287   0.286   0.309
 1980 318   317   587   201    122    459   1044     1    11   200    0.27   0.0   0.0   0.00   0.304   0.302   0.307   0.285   0.285   0.283   0.285   0.285   0.308
 1980 319   318   582   197    122    459   1044     1    11   200    0.21   0.0   0.0   0.00   0.277   0.295   0.308   0.283   0.282   0.281   0.282   0.283   0.308
 1980 320   319   582   196    122    459   1048     1    11   200    0.30   0.0   0.0   0.00   0.306   0.300   0.308   0.282   0.280   0.278   0.280   0.282   0.307
 1980 321   320   584   199    122    459   1054     1    11   200    0.28   0.0   0.0   0.00   0.348   0.311   0.315   0.281   0.279   0.277   0.278   0.280   0.307
 1980 322   321   580   195    122    459   1054     1    11   200    0.20   0.0   0.0   0.00   0.303   0.301   0.311   0.295   0.277   0.274   0.276   0.279   0.306
 1980 323   322   578   192    122    459   1054     1    11   200    0.25   0.0   0.0   0.00   0.286   0.299   0.310   0.293   0.277   0.273   0.275   0.278   0.306
 1980 324   323   575   190    122    459   1055     1    11   200    0.34   0.0   0.0   0.00   0.286   0.298   0.309   0.291   0.276   0.272   0.273   0.277   0.305
 1980 325   324   573   187    122    459   1056     1    11   200    0.37   0.0   0.0   0.00   0.279   0.297   0.306   0.290   0.275   0.271   0.272   0.276   0.305
 1980 326   325   571   185    122    459   1056     1    11   200    0.39   0.0   0.0   0.00   0.278   0.296   0.303   0.288   0.274   0.270   0.271   0.275   0.304
 1980 327   326   574   188    122    459   1061     1    11   200    0.41   0.0   0.0   0.00   0.329   0.305   0.307   0.287   0.274   0.269   0.270   0.274   0.304
 1980 328   327   576   190    122    459   1067     1    11   200    0.39   0.0   0.0   0.00   0.350   0.315   0.314   0.287   0.273   0.268   0.269   0.273   0.303
 1980 329   328   571   186    122    459   1067     1    11   200    0.29   0.0   0.0   0.00   0.305   0.301   0.310   0.300   0.272   0.266   0.267   0.272   0.302
 1980 330   329   567   181    122    459   1067     1    11   200    0.19   0.0   0.0   0.00   0.283   0.294   0.310   0.297   0.271   0.265   0.266   0.270   0.301
 1980 331   330   564   178    122    459   1067     1    11   200    0.12   0.0   0.0   0.00   0.274   0.292   0.306   0.294   0.270   0.264   0.265   0.269   0.301
 1980 332   331   560   174    122    459   1067     1    11   200    0.08   0.0   0.0   0.00   0.265   0.287   0.301   0.291   0.270   0.263   0.264   0.267   0.300
 1980 333   332   558   172    122    459   1067     1    11   200    0.05   0.0   0.0   0.00   0.261   0.284   0.298   0.289   0.269   0.262   0.264   0.266   0.299
 1980 334   333   566   180    122    459   1078     1    11   200    0.52   0.0   0.0   0.00   0.351   0.317   0.309   0.286   0.269   0.262   0.263   0.265   0.299
 1980 335   334   575   189    122    459   1090     1    11   200    0.48   0.0   0.0   0.00   0.351   0.357   0.332   0.305   0.268   0.261   0.262   0.264   0.298
 1980 336   335   572   187    122    459   1091     1    11   200    0.57   0.0   0.0   0.00   0.320   0.333   0.332   0.323   0.268   0.260   0.261   0.263   0.297
 1980 337   336   571   186    122    459   1093     1    11   200    0.59   0.0   0.0   0.00   0.316   0.321   0.329   0.334   0.271   0.260   0.261   0.262   0.296
 1980 338   337   572   186    122    459   1096     1    11   200    0.61   0.0   0.0   0.00   0.329   0.317   0.327   0.337   0.279   0.259   0.260   0.262   0.296
 1980 339   338   572   186    122    459   1099     1    11   200    0.61   0.0   0.0   0.00   0.337   0.316   0.325   0.337   0.286   0.258   0.260   0.261   0.295
 1980 340   339   568   182    122    459   1099     1    11   200    0.54   0.0   0.0   0.00   0.302   0.302   0.316   0.331   0.305   0.258   0.259   0.260   0.294
 1980 341   340   564   178    122    459   1099     1    11   200    0.45   0.0   0.0   0.00   0.283   0.294   0.310   0.329   0.302   0.257   0.258   0.259   0.293
 1980 342   341   559   173    122    459   1099     1    11   200    0.38   0.0   0.0   0.00   0.273   0.289   0.305   0.324   0.298   0.257   0.257   0.258   0.292
 1980 343   342   554   168    122    459   1099     1    11   200    0.29   0.0   0.0   0.00   0.265   0.283   0.299   0.318   0.293   0.256   0.256   0.257   0.290
 1980 344   343   549   163    122    459   1099     1    11   200    0.20   0.0   0.0   0.00   0.256   0.276   0.292   0.312   0.288   0.256   0.255   0.256   0.289
 1980 345   344   544   159    122    459   1099     1    11   200    0.12   0.0   0.0   0.00   0.249   0.269   0.286   0.307   0.284   0.255   0.255   0.255   0.288
 1980 346   345   547   161    122    459   1106     1    11   200    0.81   0.0   0.0   0.00   0.319   0.283   0.282   0.303   0.281   0.255   0.254   0.254   0.287
 1980 347   346   546   160    122    459   1110     1    11   200    0.78   0.0   0.0   0.00   0.335   0.298   0.280   0.298   0.278   0.254   0.254   0.254   0.286
 1980 348   347   545   160    122    459   1114     1    11   200    0.83   0.0   0.0   0.00   0.343   0.304   0.285   0.292   0.275   0.254   0.253   0.253   0.284
 1980 349   348   554   168    122    459   1127     1    11   200    0.85   0.0   0.0   0.00   0.349   0.354   0.316   0.293   0.273   0.253   0.252   0.252   0.283
 1980 350   349   552   166    122    459   1129     1    11   200    0.87   0.0   0.0   0.00   0.338   0.333   0.322   0.303   0.271   0.252   0.252   0.251   0.282
 1980 351   350   547   162    122    459   1129     1    11   200    0.80   0.0   0.0   0.00   0.301   0.308   0.312   0.322   0.270   0.252   0.251   0.251   0.280
 1980 352   351   545   159    122    459   1129     1    11   200    0.76   0.0   0.0   0.00   0.285   0.298   0.312   0.321   0.270   0.251   0.251   0.250   0.279
 1980 353   352   585   200    129    459   1180     1    11   200    0.93   0.0   0.0   7.34   0.353   0.358   0.370   0.383   0.349   0.262   0.250   0.250   0.278
 1980 354   353   619   233    132    459   1219     1    11   200    0.94   0.0   0.0   2.63   0.353   0.358   0.370   0.383   0.382   0.365   0.291   0.250   0.278
 1980 355   354   615   230    132    459   1219     1    11   200    0.89   0.0   0.0   0.00   0.312   0.324   0.339   0.356   0.355   0.342   0.322   0.277   0.277
 1980 356   355   611   226    132    459   1219     1    11   200    0.83   0.0   0.0   0.00   0.291   0.307   0.324   0.342   0.342   0.331   0.322   0.293   0.276
 1980 357   356   607   221    132    459   1219     1    11   200    0.77   0.0   0.0   0.00   0.280   0.298   0.316   0.335   0.334   0.325   0.322   0.297   0.275
 1980 358   357   603   217    132    459   1219     1    11   200    0.71   0.0   0.0   0.00   0.276   0.294   0.312   0.331   0.331   0.323   0.320   0.296   0.274
 1980 359   358   599   213    132    459   1219     1    11   200    0.65   0.0   0.0   0.00   0.271   0.289   0.307   0.328   0.328   0.321   0.317   0.295   0.273
 1980 360   359   594   208    132    459   1219     1    11   200    0.57   0.0   0.0   0.00   0.265   0.284   0.303   0.324   0.324   0.318   0.315   0.294   0.272
 1980 361   360   590   204    132    459   1219     1    11   200    0.52   0.0   0.0   0.00   0.261   0.280   0.299   0.321   0.321   0.316   0.313   0.293   0.272
 1980 362   361   587   202    132    459   1219     1    11   200    0.48   0.0   0.0   0.00   0.258   0.277   0.296   0.319   0.319   0.314   0.311   0.292   0.271
 1980 363   362   584   198    132    459   1219     1    11   200    0.43   0.0   0.0   0.00   0.254   0.274   0.293   0.316   0.317   0.313   0.310   0.291   0.270
 1980 364   363   580   194    132    459   1219     1    11   200    0.37   0.0   0.0   0.00   0.250   0.269   0.289   0.313   0.314   0.310   0.307   0.290   0.269
 1980 365   364   575   190    132    459   1219     1    11   200    0.30   0.0   0.0   0.00   0.245   0.264   0.285   0.309   0.310   0.308   0.305   0.289   0.268
 1980 366   365   571   185    132    459   1219     1    11   200    0.23   0.0   0.0   0.00   0.240   0.260   0.280   0.305   0.307   0.305   0.303   0.287   0.268
 1981 001   366   567   181    132    459   1219     1    11   200    0.17   0.0   0.0   0.00   0.235   0.255   0.276   0.302   0.304   0.303   0.300   0.286   0.267
 1981 002   367   563   177    132    459   1219     1    11   200    0.11   0.0   0.0   0.00   0.231   0.251   0.272   0.299   0.301   0.301   0.298   0.285   0.266
 1981 003   368   580   194    132    459   1241     1    11   200    1.26   0.0   0.0   0.00   0.354   0.341   0.300   0.296   0.298   0.299   0.297   0.284   0.265
 1981 004   369   576   191    132    459   1242     1    11   200    1.25   0.0   0.0   0.00   0.327   0.325   0.314   0.296   0.295   0.296   0.294   0.283   0.264
 1981 005   370   571   186    132    459   1242     1    11   200    1.18   0.0   0.0   0.00   0.298   0.306   0.310   0.308   0.291   0.294   0.292   0.281   0.263
 1981 006   371   569   183    132    459   1242     1    11   200    1.22   0.0   0.0   0.00   0.287   0.301   0.312   0.307   0.290   0.292   0.291   0.281   0.263
 1981 007   372   564   179    132    459   1242     1    11   200    1.30   0.0   0.0   0.00   0.280   0.295   0.308   0.303   0.287   0.290   0.288   0.279   0.262
 1981 008   373   561   175    132    459   1242     1    11   200    0.43   0.0   0.0   0.00   0.272   0.291   0.304   0.300   0.284   0.287   0.286   0.278   0.261
 1981 009   374   556   170    132    459   1242     1    11   200    0.14   0.0   0.0   0.00   0.253   0.287   0.300   0.297   0.282   0.285   0.284   0.277   0.261
 1981 010   375   552   167    132    459   1242     1    11   200    0.05   0.0   0.0   0.00   0.239   0.282   0.296   0.295   0.280   0.283   0.283   0.276   0.260
 1981 011   376   549   163    132    459   1242     1    11   200    0.09   0.0   0.0   0.00   0.225   0.277   0.292   0.293   0.279   0.282   0.281   0.275   0.260
 1981 012   377   554   169    132    459   1253     1    11   200    1.29   0.0   0.0   0.00   0.342   0.297   0.292   0.290   0.278   0.280   0.279   0.275   0.259
 1981 013   378   566   180    132    459   1268     1    11   200    0.52   0.0   0.0   0.00   0.352   0.357   0.326   0.301   0.276   0.277   0.277   0.273   0.259
 1981 014   379   561   176    132    459   1270     1    11   200    1.26   0.0   0.0   0.00   0.307   0.331   0.328   0.315   0.275   0.275   0.275   0.272   0.258
 1981 015   380   558   172    132    459   1270     1    11   200    0.43   0.0   0.0   0.00   0.289   0.311   0.318   0.331   0.277   0.273   0.273   0.271   0.258
 1981 016   381   554   168    132    459   1270     1    11   200    0.38   0.0   0.0   0.00   0.271   0.301   0.315   0.330   0.277   0.271   0.271   0.270   0.257
 1981 017   382   554   168    132    459   1275     1    11   200    1.31   0.0   0.0   0.00   0.303   0.301   0.314   0.328   0.276   0.269   0.270   0.269   0.257
 1981 018   383   550   164    132    459   1275     1    11   200    0.66   0.0   0.0   0.00   0.288   0.298   0.313   0.324   0.275   0.268   0.268   0.268   0.256
 1981 019   384   548   162    132    459   1276     1    11   200    1.38   0.0   0.0   0.00   0.282   0.296   0.311   0.320   0.275   0.267   0.267   0.267   0.256
 1981 020   385   545   160    132    459   1278     1    11   200    0.79   0.0   0.0   0.00   0.285   0.296   0.307   0.317   0.274   0.266   0.266   0.266   0.255
 1981 021   386   541   155    132    459   1278     1    11   200    0.28   0.0   0.0   0.00   0.272   0.292   0.302   0.312   0.273   0.264   0.265   0.264   0.255
 1981 022   387   537   151    132    459   1278     1    11   200    0.10   0.0   0.0   0.00   0.256   0.286   0.297   0.308   0.272   0.263   0.263   0.263   0.254
 1981 023   388   532   147    132    459   1278     1    11   200    0.04   0.0   0.0   0.00   0.239   0.280   0.292   0.303   0.271   0.262   0.262   0.262   0.254
 1981 024   389   529   143    132    459   1280     1    11   200    1.22   0.0   0.0   0.00   0.247   0.272   0.286   0.299   0.270   0.261   0.261   0.260   0.253
 1981 025   390   526   141    132    459   1280     1    11   200    0.54   0.0   0.0   0.00   0.244   0.267   0.283   0.295   0.269   0.260   0.260   0.260   0.253
 1981 026   391   523   138    132    459   1280     1    11   200    0.20   0.0   0.0   0.00   0.236   0.262   0.278   0.292   0.269   0.259   0.260   0.259   0.252
 1981 027   392   518   133    132    459   1280     1    11   200    0.07   0.0   0.0   0.00   0.217   0.255   0.272   0.286   0.267   0.258   0.258   0.258   0.252
 1981 028   393   516   130    132    459   1282     1    11   200    1.23   0.0   0.0   0.00   0.223   0.249   0.267   0.283   0.267   0.257   0.258   0.257   0.252
 1981 029   394   516   130    132    459   1285     1    11   200    0.63   0.0   0.0   0.00   0.267   0.245   0.263   0.280   0.266   0.257   0.257   0.256   0.251
 1981 030   395   512   126    132    459   1285     1    11   200    0.23   0.0   0.0   0.00   0.250   0.240   0.257   0.276   0.265   0.256   0.256   0.255   0.251
 1981 031   396   508   122    132    459   1285     1    11   200    0.08   0.0   0.0   0.00   0.233   0.235   0.253   0.273   0.264   0.255   0.255   0.255   0.250
 1981 032   397   513   127    132    459   1294     1    11   200    1.23   0.0   0.0   0.00   0.327   0.258   0.249   0.271   0.262   0.254   0.254   0.254   0.250
 1981 033   398   520   134    132    459   1305     1    11   200    0.48   0.0   0.0   0.00   0.343   0.316   0.264   0.268   0.261   0.253   0.253   0.253   0.249
 1981 034   399   516   130    132    459   1305     1    11   200    0.55   0.0   0.0   0.00   0.302   0.305   0.269   0.266   0.260   0.252   0.253   0.252   0.248
 1981 035   400   513   127    132    459   1305     1    11   200    0.20   0.0   0.0   0.00   0.282   0.294   0.270   0.265   0.259   0.252   0.252   0.251   0.248
 1981 036   401   509   124    132    459   1305     1    11   200    0.07   0.0   0.0   0.00   0.255   0.287   0.265   0.264   0.259   0.251   0.251   0.251   0.248
 1981 037   402   506   120    132    459   1305     1    11   200    0.03   0.0   0.0   0.00   0.237   0.279   0.261   0.264   0.258   0.251   0.251   0.250   0.247
 1981 038   403   502   116    132    459   1306     1    11   200    0.53   0.0   0.0   0.00   0.212   0.269   0.255   0.262   0.257   0.250   0.250   0.249   0.247
 1981 039   404   499   113    132    459   1306     1    11   200    0.20   0.0   0.0   0.00   0.200   0.258   0.251   0.261   0.256   0.249   0.250   0.249   0.246
 1981 040   405   497   112    132    459   1309     1    11   200    1.22   0.0   0.0   0.00   0.220   0.249   0.249   0.260   0.256   0.249   0.249   0.248   0.246
 1981 041   406   496   110    132    459   1309     1    11   200    0.62   0.0   0.0   0.00   0.218   0.244   0.248   0.260   0.255   0.248   0.249   0.248   0.246
 1981 042   407   492   107    132    459   1309     1    11   200    0.23   0.0   0.0   0.00   0.198   0.234   0.245   0.258   0.255   0.248   0.248   0.247   0.245
 1981 043   408   490   104    132    459   1311     1    11   200    1.23   0.0   0.0   0.00   0.212   0.225   0.242   0.257   0.253   0.247   0.247   0.246   0.245
 1981 044   409   503   117    132    459   1327     1    11   200    0.55   0.0   0.0   0.00   0.349   0.299   0.242   0.256   0.252   0.246   0.246   0.245   0.244
 1981 045   410   502   117    132    459   1329     1    11   200    1.31   0.0   0.0   0.00   0.323   0.301   0.249   0.255   0.252   0.245   0.246   0.245   0.244
 1981 046   411   511   125    132    459   1340     1    11   200    0.71   0.0   0.0   0.00   0.348   0.335   0.279   0.254   0.251   0.245   0.245   0.245   0.243
 1981 047   412   517   131    132    459   1350     1    11   200    1.34   0.0   0.0   0.00   0.348   0.350   0.314   0.254   0.251   0.244   0.245   0.244   0.243
 1981 048   413   514   129    132    459   1352     1    11   200    0.78   0.0   0.0   0.00   0.319   0.326   0.318   0.266   0.250   0.244   0.245   0.244   0.243
 1981 049   414   512   126    132    459   1354     1    11   200    1.35   0.0   0.0   0.00   0.301   0.311   0.315   0.274   0.250   0.243   0.244   0.243   0.242
 1981 050   415   513   127    132    459   1358     1    11   200    0.82   0.0   0.0   0.00   0.319   0.309   0.314   0.277   0.250   0.243   0.244   0.243   0.242
 1981 051   416   510   124    132    459   1358     1    11   200    0.31   0.0   0.0   0.00   0.288   0.297   0.309   0.284   0.250   0.243   0.243   0.243   0.242
 1981 052   417   505   120    132    459   1358     1    11   200    0.11   0.0   0.0   0.00   0.258   0.290   0.302   0.279   0.250   0.242   0.243   0.242   0.241
 1981 053   418   501   115    132    459   1358     1    11   200    0.04   0.0   0.0   0.00   0.232   0.280   0.293   0.275   0.249   0.242   0.243   0.242   0.241
 1981 054   419   496   110    132    459   1358     1    11   200    0.02   0.0   0.0   0.00   0.207   0.269   0.284   0.272   0.249   0.241   0.242   0.241   0.241
 1981 055   420   491   105    132    459   1358     1    11   200    0.01   0.0   0.0   0.00   0.186   0.256   0.274   0.269   0.249   0.241   0.242   0.241   0.240
 1981 056   421   486   100    132    459   1358     1    11   200    0.00   0.0   0.0   0.00   0.168   0.243   0.263   0.266   0.248   0.240   0.241   0.240   0.240
 1981 057   422   482    96    132    459   1359     1    11   200    0.66   0.0   0.0   0.00   0.160   0.231   0.253   0.264   0.248   0.240   0.241   0.240   0.240
 1981 058   423   484    99    132    459   1366     1    11   200    0.75   0.0   0.0   0.00   0.282   0.226   0.244   0.261   0.247   0.239   0.240   0.239   0.239
 1981 059   424   490   105    132    459   1376     1    11   200    1.12   0.0   0.0   0.00   0.333   0.278   0.241   0.259   0.246   0.239   0.239   0.239   0.238
 1981 060   425   487   102    132    459   1376     1    11   200    0.42   0.0   0.0   0.00   0.289   0.280   0.240   0.257   0.246   0.238   0.239   0.238   0.238
 1981 061   426   485    99    132    459   1377     1    11   200    0.97   0.0   0.0   0.00   0.266   0.273   0.239   0.256   0.245   0.238   0.239   0.238   0.238
 1981 062   427   492   106    132    459   1387     1    11   200    0.84   0.0   0.0   0.00   0.348   0.300   0.245   0.255   0.245   0.238   0.238   0.238   0.238
 1981 063   428   489   103    132    459   1388     1    11   200    1.12   0.0   0.0   0.00   0.305   0.294   0.250   0.254   0.245   0.237   0.238   0.237   0.237
 1981 064   429   486   101    132    459   1388     1    11   200    0.43   0.0   0.0   0.00   0.276   0.287   0.249   0.253   0.244   0.237   0.238   0.237   0.237
 1981 065   430   483    98    132    459   1388     1    11   200    0.16   0.0   0.0   0.00   0.254   0.278   0.247   0.253   0.244   0.237   0.237   0.237   0.237
 1981 066   431   481    95    132    459   1388     1    11   200    0.06   0.0   0.0   0.00   0.237   0.270   0.246   0.252   0.244   0.236   0.237   0.236   0.236
 1981 067   432   478    93    132    459   1388     1    11   200    0.02   0.0   0.0   0.00   0.215   0.259   0.244   0.252   0.243   0.236   0.237   0.236   0.236
 1981 068   433   475    89    132    459   1388     1    11   200    0.01   0.0   0.0   0.00   0.190   0.246   0.242   0.251   0.243   0.236   0.236   0.236   0.236
 1981 069   434   471    85    132    459   1388     1    11   200    0.00   0.0   0.0   0.00   0.173   0.230   0.239   0.250   0.242   0.235   0.236   0.235   0.236
 1981 070   435   468    82    132    459   1388     1    11   200    0.29   0.0   0.0   0.00   0.161   0.220   0.236   0.248   0.242   0.235   0.235   0.235   0.235
 1981 071   436   464    79    132    459   1389     1    11   200    0.76   0.0   0.0   0.00   0.155   0.213   0.232   0.247   0.241   0.234   0.234   0.234   0.234
 1981 072   437   464    78    132    459   1392     1    11   200    0.84   0.0   0.0   0.00   0.202   0.208   0.228   0.245   0.239   0.233   0.233   0.233   0.233
 1981 073   438   464    79    132    459   1395     1    11   200    1.09   0.0   0.0   0.00   0.235   0.206   0.226   0.243   0.239   0.232   0.233   0.232   0.233
 1981 074   439   468    82    132    459   1402     1    11   200    0.99   0.0   0.0   0.00   0.294   0.224   0.225   0.242   0.238   0.232   0.232   0.232   0.232
 1981 075   440   465    80    132    459   1402     1    11   200    0.59   0.0   0.0   0.00   0.263   0.226   0.224   0.242   0.237   0.231   0.232   0.231   0.232
 1981 076   441   463    77    132    459   1402     1    11   200    0.23   0.0   0.0   0.00   0.234   0.221   0.223   0.241   0.237   0.231   0.231   0.231   0.232
 1981 077   442   459    74    132    459   1402     1    11   200    0.09   0.0   0.0   0.00   0.200   0.217   0.222   0.240   0.236   0.230   0.231   0.230   0.231
 1981 078   443   457    71    132    459   1402     1    11   200    0.11   0.0   0.0   0.00   0.186   0.213   0.221   0.239   0.236   0.230   0.230   0.230   0.231
 1981 079   444   454    69    132    459   1402     1    11   200    0.04   0.0   0.0   0.00   0.174   0.207   0.219   0.238   0.235   0.229   0.229   0.229   0.230
 1981 080   445   451    66    132    459   1402     1    11   200    0.02   0.0   0.0   0.00   0.162   0.203   0.217   0.236   0.234   0.228   0.228   0.228   0.229
 1981 081   446   448    62    132    459   1402     1    11   200    0.01   0.0   0.0   0.00   0.151   0.199   0.215   0.235   0.232   0.227   0.227   0.227   0.228
 1981 082   447   445    59    132    459   1402     1    11   200    0.00   0.0   0.0   0.00   0.141   0.196   0.213   0.233   0.231   0.226   0.226   0.226   0.227
 1981 083   448   442    56    132    459   1402     1    11   200    0.00   0.0   0.0   0.00   0.131   0.193   0.211   0.231   0.229   0.224   0.225   0.225   0.226
 1981 084   449   439    53    132    459   1402     1    11   200    0.00   0.0   0.0   0.00   0.122   0.191   0.209   0.230   0.228   0.223   0.224   0.224   0.225
 1981 085   450   436    50    132    459   1402     1    11   200    0.00   0.0   0.0   0.00   0.111   0.188   0.207   0.228   0.227   0.222   0.222   0.222   0.224
 1981 086   451   432    47    132    459   1402     1    11   200    0.00   0.0   0.0   0.00   0.103   0.186   0.206   0.226   0.225   0.221   0.221   0.221   0.222
 1981 087   452   430    44    132    459   1402     1    11   200    0.00   0.0   0.0   0.00   0.103   0.184   0.204   0.225   0.224   0.219   0.220   0.220   0.221
 1981 088   453   428    42    132    459   1403     1    11   200    0.75   0.0   0.0   0.00   0.108   0.183   0.203   0.223   0.223   0.218   0.219   0.219   0.220
 1981 089   454   438    52    132    459   1415     1    11   200    0.75   0.0   0.0   0.00   0.314   0.196   0.201   0.222   0.222   0.217   0.218   0.218   0.219
 1981 090   455   442    56    132    459   1422     1    11   200    1.31   0.0   0.0   0.00   0.330   0.230   0.201   0.222   0.221   0.217   0.218   0.218   0.219
 1981 091   456   439    54    132    459   1422     1    11   200    0.68   0.0   0.0   0.00   0.279   0.236   0.201   0.222   0.221   0.217   0.217   0.218   0.219
 1981 092   457   437    51    132    459   1422     1    11   200    0.24   0.0   0.0   0.00   0.255   0.228   0.202   0.222   0.221   0.217   0.217   0.217   0.219
 1981 093   458   439    53    132    459   1427     1    11   200    1.29   0.0   0.0   0.00   0.280   0.235   0.202   0.221   0.221   0.217   0.217   0.217   0.219
 1981 094   459   437    51    132    459   1427     1    11   200    0.46   0.0   0.0   0.00   0.260   0.228   0.202   0.221   0.221   0.216   0.217   0.217   0.218
 1981 095   460   435    49    132    459   1427     1    11   200    0.17   0.0   0.0   0.00   0.231   0.222   0.202   0.221   0.221   0.216   0.217   0.217   0.218
 1981 096   461   432    46    132    459   1427     1    11   200    0.06   0.0   0.0   0.00   0.198   0.217   0.202   0.221   0.220   0.216   0.217   0.217   0.218
 1981 097   462   429    43    132    459   1427     1    11   200    0.02   0.0   0.0   0.00   0.176   0.207   0.202   0.220   0.220   0.216   0.216   0.216   0.218
 1981 098   463   427    41    132    459   1427     1    11   200    0.01   0.0   0.0   0.00   0.163   0.200   0.201   0.220   0.219   0.215   0.216   0.216   0.217
 1981 099   464   424    39    132    459   1427     1    11   200    0.00   0.0   0.0   0.00   0.155   0.196   0.200   0.219   0.219   0.214   0.215   0.215   0.216
 1981 100   465   423    37    132    459   1427     1    11   200    0.30   0.0   0.0   0.00   0.151   0.193   0.200   0.218   0.218   0.214   0.214   0.214   0.216
 1981 101   466   429    43    132    459   1435     1    11   200    1.04   0.0   0.0   0.00   0.289   0.195   0.199   0.217   0.217   0.213   0.214   0.214   0.215
 1981 102   467   436    50    132    459   1444     1    11   200    0.93   0.0   0.0   0.00   0.329   0.247   0.199   0.217   0.217   0.213   0.214   0.214   0.215
 1981 103   468   434    49    132    459   1444     1    11   200    0.49   0.0   0.0   0.00   0.290   0.253   0.199   0.217   0.217   0.213   0.214   0.214   0.215
 1981 104   469   433    48    132    459   1444     1    11   200    0.25   0.0   0.0   0.00   0.274   0.251   0.200   0.217   0.217   0.213   0.214   0.214   0.215
 1981 105   470   432    46    132    459   1444     1    11   200    0.09   0.0   0.0   0.00   0.256   0.243   0.201   0.217   0.217   0.213   0.213   0.213   0.215
 1981 106   471   430    44    132    459   1444     1    11   200    0.03   0.0   0.0   0.00   0.237   0.233   0.201   0.217   0.217   0.213   0.213   0.213   0.215
 1981 107   472   428    42    132    459   1444     1    11   200    0.01   0.0   0.0   0.00   0.219   0.226   0.201   0.217   0.217   0.213   0.213   0.213   0.215
 1981 108   473   426    40    132    459   1444     1    11   200    0.00   0.0   0.0   0.00   0.193   0.219   0.201   0.217   0.217   0.212   0.213   0.213   0.215
 1981 109   474   424    38    132    459   1444     1    11   200    0.00   0.0   0.0   0.00   0.181   0.209   0.201   0.216   0.216   0.212   0.213   0.213   0.214
 1981 110   475   421    36    132    459   1444     1    11   200    0.00   0.0   0.0   0.00   0.172   0.202   0.200   0.216   0.216   0.212   0.212   0.212   0.214
[...]
 2016 246 13394   669   283   5380  18954  48287     1    11   197    0.00   0.0   0.0   0.00   0.263   0.320   0.345   0.372   0.374   0.352   0.348   0.321   0.319
 2016 247 13395   670   284   5380  18957  48293     1    11   197    0.00   0.0   0.0   0.00   0.322   0.320   0.338   0.364   0.369   0.351   0.349   0.322   0.321
 2016 248 13396   670   284   5380  18962  48298     1    11   196    0.00   0.0   0.0   0.00   0.336   0.324   0.336   0.359   0.364   0.349   0.349   0.322   0.322
 2016 249 13397   671   286   5380  18966  48306     1    11   196    0.00   0.0   0.0   0.12   0.334   0.343   0.341   0.359   0.361   0.347   0.348   0.323   0.322
 2016 250 13398   689   303   5389  18971  48338     1    11   196    0.00   0.0   0.0   8.98   0.334   0.363   0.374   0.387   0.386   0.355   0.351   0.323   0.323
 2016 251 13399   685   300   5389  18976  48341     1    11   196    0.00   0.0   0.0   0.00   0.316   0.343   0.360   0.382   0.384   0.358   0.355   0.324   0.323
 2016 252 13400   678   293   5389  18982  48341     1    11   195    0.00   0.0   0.0   0.00   0.272   0.325   0.347   0.374   0.379   0.358   0.356   0.325   0.324
 2016 253 13401   670   285   5389  18988  48341     1    11   195    0.00   0.0   0.0   0.00   0.230   0.311   0.336   0.364   0.371   0.355   0.356   0.325   0.325
 2016 254 13402   649   263   5389  19007  48341     1    11   197    0.00   0.0   0.0   0.00   0.193   0.300   0.326   0.349   0.353   0.339   0.340   0.319   0.319
 2016 255 13403   637   251   5389  19017  48341     1    11   199    0.00   0.0   0.0   0.00   0.154   0.295   0.321   0.341   0.343   0.332   0.332   0.316   0.316
 2016 256 13404   631   246   5389  19021  48341     1    11   199    0.00   0.0   0.0   0.00   0.137   0.290   0.318   0.338   0.339   0.328   0.328   0.315   0.316
 2016 257 13405   659   273   5398  19022  48380     1    11   199    0.00   0.0   0.0   9.01   0.334   0.358   0.356   0.356   0.347   0.331   0.329   0.315   0.315
 2016 258 13406   656   270   5398  19023  48381     1    11   199    0.00   0.0   0.0   0.00   0.275   0.335   0.348   0.361   0.354   0.335   0.332   0.316   0.315
 2016 259 13407   644   259   5398  19033  48381     1    11   199    0.00   0.0   0.0   0.00   0.243   0.316   0.332   0.348   0.344   0.330   0.328   0.316   0.315
 2016 260 13408   638   252   5398  19038  48381     1    11   199    0.00   0.0   0.0   0.00   0.214   0.304   0.324   0.341   0.339   0.327   0.326   0.316   0.315
 2016 261 13409   634   248   5398  19039  48381     1    11   199    0.00   0.0   0.0   0.00   0.175   0.296   0.320   0.337   0.337   0.327   0.326   0.316   0.315
 2016 262 13410   631   246   5398  19040  48381     1    11   199    0.00   0.0   0.0   0.00   0.155   0.291   0.318   0.336   0.337   0.327   0.326   0.316   0.315
 2016 263 13411   630   245   5398  19040  48381     1    11   199    0.00   0.0   0.0   0.00   0.143   0.286   0.317   0.336   0.337   0.327   0.326   0.316   0.315
 2016 264 13412   629   244   5398  19040  48381     1    11   199    0.00   0.0   0.0   0.00   0.133   0.282   0.317   0.336   0.337   0.327   0.326   0.316   0.315
 2016 265 13413   628   243   5398  19040  48381     1    11   199    0.00   0.0   0.0   0.00   0.125   0.279   0.316   0.336   0.337   0.327   0.326   0.316   0.315
 2016 266 13414   628   242   5398  19040  48381     1    11   199    0.00   0.0   0.0   0.00   0.119   0.276   0.315   0.336   0.337   0.327   0.326   0.316   0.315
 2016 267 13415   627   241   5398  19040  48381     1    11   199    0.00   0.0   0.0   0.00   0.113   0.273   0.314   0.336   0.337   0.327   0.326   0.316   0.315
 2016 268 13416   626   241   5398  19040  48381     1    11   199    0.00   0.0   0.0   0.00   0.110   0.270   0.313   0.335   0.337   0.327   0.326   0.316   0.315
 2016 269 13417   626   240   5398  19040  48381     1    11   199    0.00   0.0   0.0   0.00   0.110   0.268   0.313   0.335   0.337   0.327   0.326   0.316   0.315
 2016 270 13418   626   240   5398  19040  48381     1    11   199    0.00   0.0   0.0   0.00   0.110   0.266   0.312   0.335   0.337   0.327   0.326   0.316   0.315
 2016 271 13419   625   240   5398  19040  48381     1    11   199    0.00   0.0   0.0   0.00   0.111   0.264   0.311   0.335   0.337   0.327   0.326   0.316   0.315
 2016 272 13420   625   239   5398  19040  48381     1    11   199    0.00   0.0   0.0   0.00   0.109   0.263   0.310   0.335   0.337   0.327   0.326   0.316   0.315
 2016 273 13421   625   239   5398  19040  48381     1    11   199    0.00   0.0   0.0   0.00   0.109   0.261   0.309   0.335   0.337   0.327   0.326   0.316   0.315
 2016 274 13422   624   239   5398  19040  48381     1    11   199    0.00   0.0   0.0   0.00   0.109   0.260   0.309   0.334   0.337   0.327   0.326   0.316   0.315
 2016 275 13423   624   238   5398  19040  48381     1    11   199    0.00   0.0   0.0   0.00   0.108   0.259   0.308   0.334   0.337   0.327   0.326   0.316   0.315
 2016 276 13424   624   238   5398  19040  48381     1    11   199    0.00   0.0   0.0   0.00   0.108   0.257   0.307   0.334   0.337   0.327   0.326   0.316   0.315
 2016 277 13425   624   238   5398  19040  48381     1    11   199    0.00   0.0   0.0   0.00   0.108   0.256   0.307   0.333   0.336   0.327   0.326   0.316   0.315
 2016 278 13426   623   238   5398  19040  48381     1    11   199    0.00   0.0   0.0   0.00   0.110   0.255   0.306   0.333   0.336   0.327   0.326   0.316   0.315
 2016 279 13427   623   238   5398  19040  48381     1    11   199    0.00   0.0   0.0   0.00   0.112   0.254   0.305   0.333   0.336   0.327   0.326   0.316   0.315
 2016 280 13428   623   237   5398  19040  48381     1    11   199    0.00   0.0   0.0   0.00   0.110   0.253   0.305   0.333   0.336   0.327   0.326   0.316   0.315
 2016 281 13429   623   237   5398  19040  48381     1    11   199    0.00   0.0   0.0   0.00   0.107   0.252   0.304   0.332   0.336   0.327   0.326   0.316   0.315
 2016 282 13430   627   242   5398  19040  48386     1    11   199    0.00   0.0   0.0   0.00   0.207   0.251   0.303   0.332   0.336   0.327   0.326   0.316   0.315
 2016 283 13431   628   242   5398  19040  48388     1    11   199    0.00   0.0   0.0   0.00   0.215   0.252   0.303   0.332   0.336   0.327   0.326   0.316   0.315
 2016 284 13432   627   241   5398  19040  48388     1    11   199    0.00   0.0   0.0   0.00   0.203   0.252   0.302   0.331   0.336   0.327   0.326   0.316   0.315
 2016 285 13433   626   241   5398  19040  48388     1    11   199    0.00   0.0   0.0   0.00   0.192   0.252   0.302   0.331   0.336   0.327   0.326   0.316   0.315
 2016 286 13434   626   240   5398  19040  48388     1    11   199    0.00   0.0   0.0   0.00   0.183   0.252   0.301   0.331   0.336   0.327   0.326   0.316   0.315
 2016 287 13435   626   240   5398  19040  48389     1    11   199    0.00   0.0   0.0   0.00   0.190   0.251   0.301   0.331   0.336   0.327   0.326   0.316   0.315
 2016 288 13436   626   240   5398  19040  48390     1    11   199    0.00   0.0   0.0   0.00   0.200   0.251   0.300   0.330   0.336   0.327   0.326   0.316   0.315
 2016 289 13437   626   240   5398  19040  48391     1    11   199    0.00   0.0   0.0   0.00   0.191   0.251   0.300   0.330   0.335   0.327   0.326   0.316   0.315
 2016 290 13438   637   251   5398  19040  48405     1    11   199    0.00   0.0   0.0   0.15   0.316   0.300   0.301   0.330   0.335   0.327   0.326   0.316   0.315
 2016 291 13439   647   261   5399  19041  48419     1    11   199    0.00   0.0   0.0   0.98   0.318   0.354   0.328   0.338   0.336   0.326   0.326   0.315   0.315
 2016 292 13440   647   262   5399  19041  48421     1    11   199    0.00   0.0   0.0   0.00   0.292   0.335   0.334   0.345   0.341   0.328   0.327   0.316   0.315
 2016 293 13441   647   262   5399  19042  48423     1    11   199    0.00   0.0   0.0   0.00   0.285   0.323   0.333   0.348   0.344   0.330   0.328   0.315   0.315
 2016 294 13442   668   282   5406  19043  48453     1    11   199    0.00   0.0   0.0   6.71   0.323   0.363   0.374   0.373   0.359   0.336   0.332   0.316   0.316
 2016 295 13443   664   278   5406  19045  48454     1    11   199    0.00   0.0   0.0   0.00   0.253   0.337   0.358   0.375   0.367   0.342   0.337   0.317   0.316
 2016 296 13444   645   260   5406  19061  48454     1    11   199    0.00   0.0   0.0   0.00   0.199   0.315   0.337   0.354   0.350   0.333   0.331   0.315   0.315
 2016 297 13445   636   250   5406  19067  48454     1    11   199    0.00   0.0   0.0   0.00   0.153   0.301   0.327   0.344   0.342   0.329   0.327   0.315   0.315
 2016 298 13446   633   248   5406  19068  48454     1    11   199    0.00   0.0   0.0   0.00   0.137   0.293   0.322   0.342   0.342   0.329   0.328   0.315   0.315
 2016 299 13447   632   246   5406  19069  48455     1    11   199    0.00   0.0   0.0   0.00   0.131   0.288   0.318   0.339   0.341   0.329   0.329   0.315   0.315
 2016 300 13448   633   248   5406  19070  48459     1    11   199    0.00   0.0   0.0   0.00   0.193   0.284   0.318   0.337   0.339   0.328   0.329   0.315   0.315
 2016 301 13449   643   258   5406  19071  48472     1    11   199    0.00   0.0   0.0   0.21   0.325   0.313   0.322   0.339   0.339   0.328   0.328   0.315   0.315
 2016 302 13450   641   255   5406  19072  48474     1    11   199    0.00   0.0   0.0   0.00   0.262   0.313   0.324   0.340   0.340   0.328   0.328   0.315   0.315
 2016 303 13451   635   249   5406  19075  48474     1    11   199    0.00   0.0   0.0   0.00   0.201   0.304   0.320   0.337   0.337   0.326   0.326   0.315   0.315
 2016 304 13452   631   245   5406  19076  48474     1    11   199    0.00   0.0   0.0   0.00   0.155   0.296   0.318   0.336   0.337   0.326   0.326   0.315   0.315
 2016 305 13453   630   244   5406  19076  48474     1    11   199    0.00   0.0   0.0   0.00   0.139   0.290   0.318   0.336   0.337   0.326   0.326   0.315   0.315
 2016 306 13454   629   243   5406  19076  48474     1    11   199    0.00   0.0   0.0   0.00   0.128   0.285   0.317   0.336   0.337   0.326   0.326   0.315   0.315
 2016 307 13455   662   276   5422  19077  48525     1    11   199    0.00   0.0   0.0  15.85   0.342   0.359   0.369   0.362   0.349   0.331   0.328   0.315   0.315
 2016 308 13456   644   259   5422  19090  48525     1    11   199    0.00   0.0   0.0   0.00   0.227   0.328   0.343   0.348   0.342   0.327   0.326   0.315   0.315
 2016 309 13457   636   250   5422  19095  48525     1    11   199    0.00   0.0   0.0   0.00   0.172   0.309   0.329   0.341   0.338   0.326   0.326   0.315   0.315
 2016 310 13458   632   246   5422  19097  48525     1    11   199    0.00   0.0   0.0   0.00   0.149   0.297   0.323   0.337   0.336   0.326   0.326   0.315   0.315
 2016 311 13459   630   244   5422  19098  48525     1    11   199    0.00   0.0   0.0   0.00   0.137   0.292   0.319   0.336   0.336   0.326   0.326   0.315   0.315
 2016 312 13460   628   243   5422  19098  48525     1    11   199    0.00   0.0   0.0   0.00   0.128   0.287   0.317   0.336   0.336   0.326   0.326   0.315   0.315
 2016 313 13461   628   242   5422  19098  48525     1    11   199    0.00   0.0   0.0   0.00   0.121   0.282   0.316   0.336   0.336   0.326   0.326   0.315   0.315
 2016 314 13462   627   241   5422  19098  48525     1    11   199    0.00   0.0   0.0   0.00   0.115   0.279   0.316   0.336   0.336   0.326   0.326   0.315   0.315
 2016 315 13463   627   241   5422  19098  48526     1    11   199    0.00   0.0   0.0   0.00   0.129   0.276   0.315   0.336   0.336   0.326   0.326   0.315   0.315
 2016 316 13464   626   241   5422  19098  48526     1    11   199    0.00   0.0   0.0   0.00   0.123   0.273   0.314   0.336   0.336   0.326   0.326   0.315   0.315
 2016 317 13465   626   240   5422  19098  48526     1    11   199    0.00   0.0   0.0   0.00   0.117   0.271   0.313   0.336   0.336   0.326   0.326   0.315   0.315
 2016 318 13466   625   239   5422  19098  48526     1    11   199    0.00   0.0   0.0   0.00   0.111   0.268   0.312   0.335   0.336   0.326   0.326   0.315   0.315
 2016 319 13467   625   239   5422  19098  48526     1    11   199    0.00   0.0   0.0   0.00   0.110   0.266   0.312   0.335   0.336   0.326   0.326   0.315   0.315
 2016 320 13468   624   239   5422  19098  48526     1    11   199    0.00   0.0   0.0   0.00   0.109   0.265   0.311   0.335   0.336   0.326   0.326   0.315   0.315
 2016 321 13469   626   240   5422  19098  48527     1    11   199    0.00   0.0   0.0   0.00   0.145   0.263   0.310   0.335   0.336   0.326   0.326   0.315   0.315
 2016 322 13470   625   239   5422  19098  48528     1    11   199    0.00   0.0   0.0   0.00   0.138   0.261   0.309   0.335   0.336   0.326   0.326   0.315   0.315
 2016 323 13471   634   248   5422  19098  48538     1    11   199    0.00   0.0   0.0   0.00   0.285   0.274   0.309   0.334   0.336   0.326   0.326   0.315   0.315
 2016 324 13472   631   246   5422  19098  48538     1    11   199    0.00   0.0   0.0   0.00   0.231   0.279   0.308   0.334   0.336   0.326   0.326   0.315   0.315
 2016 325 13473   630   244   5422  19098  48538     1    11   199    0.00   0.0   0.0   0.00   0.207   0.278   0.308   0.334   0.336   0.326   0.326   0.315   0.315
 2016 326 13474   629   243   5422  19098  48538     1    11   199    0.00   0.0   0.0   0.00   0.192   0.275   0.308   0.334   0.336   0.326   0.326   0.315   0.315
 2016 327 13475   628   242   5422  19098  48538     1    11   199    0.00   0.0   0.0   0.00   0.180   0.273   0.308   0.333   0.336   0.326   0.326   0.315   0.315
 2016 328 13476   627   241   5422  19098  48538     1    11   199    0.00   0.0   0.0   0.00   0.170   0.271   0.307   0.333   0.336   0.326   0.326   0.315   0.315
 2016 329 13477   626   241   5422  19098  48538     1    11   199    0.00   0.0   0.0   0.00   0.162   0.268   0.307   0.333   0.336   0.326   0.326   0.315   0.315
 2016 330 13478   626   240   5422  19098  48538     1    11   199    0.00   0.0   0.0   0.00   0.155   0.266   0.306   0.333   0.336   0.326   0.326   0.315   0.315
 2016 331 13479   625   239   5422  19098  48538     1    11   199    0.00   0.0   0.0   0.00   0.149   0.264   0.306   0.332   0.336   0.326   0.326   0.315   0.315
 2016 332 13480   644   259   5424  19098  48562     1    11   199    0.00   0.0   0.0   2.09   0.317   0.335   0.323   0.337   0.336   0.326   0.326   0.316   0.315
 2016 333 13481   641   255   5424  19099  48562     1    11   199    0.00   0.0   0.0   0.00   0.239   0.321   0.327   0.341   0.339   0.327   0.326   0.315   0.315
 2016 334 13482   635   249   5424  19102  48562     1    11   199    0.00   0.0   0.0   0.00   0.185   0.306   0.322   0.338   0.336   0.327   0.326   0.315   0.315
 2016 335 13483   632   246   5424  19103  48562     1    11   199    0.00   0.0   0.0   0.00   0.159   0.296   0.319   0.336   0.336   0.327   0.326   0.315   0.315
 2016 336 13484   630   245   5424  19103  48562     1    11   199    0.00   0.0   0.0   0.00   0.145   0.291   0.319   0.336   0.336   0.327   0.326   0.315   0.315
 2016 337 13485   629   244   5424  19103  48562     1    11   199    0.00   0.0   0.0   0.00   0.136   0.286   0.318   0.336   0.336   0.327   0.326   0.315   0.315
 2016 338 13486   630   244   5424  19103  48565     1    11   199    0.00   0.0   0.0   0.00   0.161   0.282   0.317   0.336   0.336   0.327   0.326   0.315   0.315
 2016 339 13487   629   243   5424  19103  48565     1    11   199    0.00   0.0   0.0   0.00   0.150   0.279   0.317   0.336   0.336   0.327   0.326   0.315   0.315
 2016 340 13488   628   242   5424  19103  48565     1    11   199    0.00   0.0   0.0   0.00   0.141   0.276   0.316   0.336   0.336   0.327   0.326   0.315   0.315
 2016 341 13489   627   242   5424  19103  48565     1    11   199    0.00   0.0   0.0   0.00   0.134   0.273   0.315   0.336   0.336   0.327   0.326   0.315   0.315
 2016 342 13490   627   241   5424  19103  48565     1    11   199    0.00   0.0   0.0   0.00   0.128   0.271   0.314   0.336   0.336   0.327   0.326   0.315   0.315
 2016 343 13491   626   240   5424  19103  48565     1    11   199    0.00   0.0   0.0   0.00   0.122   0.268   0.313   0.336   0.336   0.327   0.326   0.315   0.315
 2016 344 13492   625   240   5424  19103  48565     1    11   199    0.00   0.0   0.0   0.00   0.116   0.266   0.312   0.335   0.336   0.327   0.326   0.315   0.315
 2016 345 13493   625   239   5424  19103  48565     1    11   199    0.00   0.0   0.0   0.00   0.111   0.265   0.311   0.335   0.336   0.327   0.326   0.315   0.315
 2016 346 13494   624   239   5424  19103  48565     1    11   199    0.00   0.0   0.0   0.00   0.109   0.263   0.311   0.335   0.336   0.327   0.326   0.315   0.315
 2016 347 13495   624   238   5424  19103  48565     1    11   199    0.00   0.0   0.0   0.00   0.109   0.261   0.310   0.335   0.336   0.327   0.326   0.315   0.315
 2016 348 13496   624   239   5424  19103  48566     1    11   199    0.00   0.0   0.0   0.00   0.121   0.260   0.309   0.335   0.336   0.327   0.326   0.315   0.315
 2016 349 13497   624   238   5424  19103  48566     1    11   199    0.00   0.0   0.0   0.00   0.116   0.259   0.308   0.334   0.336   0.327   0.326   0.315   0.315
 2016 350 13498   623   238   5424  19103  48566     1    11   199    0.00   0.0   0.0   0.00   0.111   0.257   0.308   0.334   0.336   0.327   0.326   0.315   0.315
 2016 351 13499   623   237   5424  19103  48566     1    11   199    0.00   0.0   0.0   0.00   0.108   0.256   0.307   0.334   0.336   0.327   0.326   0.315   0.315
 2016 352 13500   623   237   5424  19103  48566     1    11   199    0.00   0.0   0.0   0.00   0.108   0.255   0.306   0.333   0.336   0.327   0.326   0.315   0.315
 2016 353 13501   622   237   5424  19103  48566     1    11   199    0.00   0.0   0.0   0.00   0.108   0.254   0.306   0.333   0.336   0.327   0.326   0.315   0.315
 2016 354 13502   642   257   5425  19103  48588     1    11   199    0.00   0.0   0.0   1.11   0.357   0.314   0.316   0.333   0.336   0.327   0.326   0.315   0.315
 2016 355 13503   645   259   5425  19103  48594     1    11   199    0.00   0.0   0.0   0.08   0.270   0.340   0.330   0.341   0.338   0.327   0.327   0.316   0.315
 2016 356 13504   637   251   5425  19107  48594     1    11   199    0.00   0.0   0.0   0.00   0.192   0.318   0.323   0.337   0.336   0.327   0.327   0.316   0.315
 2016 357 13505   633   247   5425  19109  48594     1    11   199    0.00   0.0   0.0   0.00   0.166   0.302   0.320   0.336   0.336   0.327   0.327   0.316   0.315
 2016 358 13506   642   256   5425  19110  48607     1    11   199    0.00   0.0   0.0   0.11   0.302   0.309   0.323   0.339   0.337   0.327   0.327   0.315   0.315
 2016 359 13507   637   252   5425  19111  48607     1    11   199    0.00   0.0   0.0   0.00   0.223   0.308   0.323   0.340   0.339   0.327   0.327   0.315   0.315
 2016 360 13508   632   247   5425  19113  48607     1    11   199    0.00   0.0   0.0   0.00   0.168   0.298   0.319   0.337   0.336   0.326   0.327   0.315   0.315
 2016 361 13509   657   272   5434  19114  48646     1    11   199    0.00   0.0   0.0   9.08   0.304   0.357   0.362   0.358   0.347   0.330   0.328   0.315   0.315
 2016 362 13510   667   282   5436  19115  48661     1    11   199    0.00   0.0   0.0   1.47   0.311   0.363   0.373   0.375   0.361   0.337   0.333   0.316   0.315
 2016 363 13511   665   279   5436  19116  48662     1    11   199    0.00   0.0   0.0   0.00   0.259   0.338   0.358   0.375   0.368   0.343   0.338   0.317   0.316
 2016 364 13512   646   260   5436  19132  48662     1    11   199    0.00   0.0   0.0   0.00   0.196   0.316   0.337   0.355   0.351   0.334   0.331   0.315   0.315
 2016 365 13513   642   256   5436  19133  48662     1    11   199    0.00   0.0   0.0   0.00   0.150   0.302   0.329   0.351   0.351   0.335   0.333   0.316   0.315
