*Soil Organic Matter daily output file

*DSSAT Cropping System Model Ver. 4.8.0.027 -release  FEB 01, 2024 15:59:10

*RUN   1        : MARANDU11299              PRFRM048 SPPI7902    1
 MODEL          : PRFRM048 - Brachiaria
 EXPERIMENT     : SPPI7902 BR
 DATA PATH      : C:/DSSAT48/Brachiaria/
 TREATMENT  1   : MARANDU11299              PRFRM048
  
@YEAR DOY   DAS    OMAC    SCDD    SOCD    SC0D    SCTD   SOMCT    LCTD    ONAC    SNDD    SOND    SN0D    SNTD   SOMNT    LNTD
 1980 001     0       0   12658  319929       0  319929  315929  4000.0    0.00  1787.6 44712.8    0.00 44712.8 44614.8   98.01
 1980 002     1       0   12677  319851       0  319851  315987  3864.2    0.00  1788.9 44712.4    0.00 44712.4 44618.6   93.80
 1980 003     2       0   12694  319781       0  319781  316035  3745.9    0.00  1790.1 44711.9    0.00 44711.9 44621.8   90.13
 1980 004     3       0   12709  319714       0  319714  316081  3633.1    0.00  1791.2 44711.4    0.00 44711.4 44624.8   86.65
 1980 005     4       0   12725  319647       0  319647  316127  3519.5    0.00  1792.2 44710.9    0.00 44710.9 44627.7   83.15
 1980 006     5       0   12740  319579       0  319579  316172  3406.8    0.00  1793.3 44710.2    0.00 44710.2 44630.6   79.68
 1980 007     6       0   12758  319496       0  319496  316228  3268.5    0.00  1794.5 44709.6    0.00 44709.6 44634.1   75.42
 1980 008     7       0   12776  319417       0  319417  316280  3136.9    0.00  1795.8 44708.8    0.00 44708.8 44637.4   71.37
 1980 009     8       0   12792  319342       0  319342  316327  3014.8    0.00  1796.9 44708.0    0.00 44708.0 44640.4   67.63
 1980 010     9       0   12807  319275       0  319275  316368  2906.8    0.00  1797.9 44707.2    0.00 44707.2 44642.9   64.33
 1980 011    10       0   12820  319213       0  319213  316405  2808.7    0.00  1798.8 44706.4    0.00 44706.4 44645.0   61.35
 1980 012    11       0   12831  319156       0  319156  316437  2718.7    0.00  1799.6 44705.5    0.00 44705.5 44646.9   58.61
 1980 013    12       0   12841  319104       0  319104  316465  2638.2    0.00  1800.2 44704.7    0.00 44704.7 44648.5   56.18
 1980 014    13       0   12850  319055       0  319055  316491  2564.3    0.00  1800.8 44703.9    0.00 44703.9 44649.9   53.96
 1980 015    14       0   12858  319008       0  319008  316514  2493.8    0.00  1801.4 44703.0    0.00 44703.0 44651.1   51.84
 1980 016    15       0   12866  318963       0  318963  316536  2427.6    0.00  1801.9 44702.1    0.00 44702.1 44652.2   49.86
 1980 017    16       0   12873  318921       0  318921  316555  2366.1    0.00  1802.3 44701.2    0.00 44701.2 44653.2   48.03
 1980 018    17       0   12879  318880       0  318880  316572  2307.6    0.00  1802.7 44700.3    0.00 44700.3 44654.0   46.29
 1980 019    18       0   12885  318840       0  318840  316590  2250.1    0.00  1803.1 44699.3    0.00 44699.3 44654.7   44.59
 1980 020    19       0   12892  318798       0  318798  316607  2191.0    0.00  1803.6 44698.4    0.00 44698.4 44655.5   42.84
 1980 021    20       0   12898  318758       0  318758  316624  2134.1    0.00  1804.0 44697.4    0.00 44697.4 44656.2   41.16
 1980 022    21       0   12904  318719       0  318719  316638  2081.1    0.00  1804.3 44696.4    0.00 44696.4 44656.8   39.60
 1980 023    22       0   12909  318682       0  318682  316652  2030.6    0.00  1804.7 44695.4    0.00 44695.4 44657.3   38.12
 1980 024    23       0   12917  318632       0  318632  316674  1957.9    0.00  1805.2 44694.3    0.00 44694.3 44658.3   35.97
 1980 025    24       0   12925  318584       0  318584  316694  1890.1    0.00  1805.7 44693.2    0.00 44693.2 44659.2   33.97
 1980 026    25       0   12931  318544       0  318544  316707  1837.0    0.00  1806.1 44692.1    0.00 44692.1 44659.7   32.42
 1980 027    26       0   12937  318508       0  318508  316718  1789.7    0.00  1806.4 44691.0    0.00 44691.0 44660.0   31.07
 1980 028    27       0   12941  318475       0  318475  316726  1748.6    0.00  1806.6 44690.0    0.00 44690.0 44660.1   29.90
 1980 029    28       0   12945  318447       0  318447  316733  1713.8    0.00  1806.9 44689.0    0.00 44689.0 44660.1   28.91
 1980 030    29       0   12948  318419       0  318419  316738  1680.9    0.00  1807.0 44688.0    0.00 44688.0 44660.0   27.99
 1980 031    30       0   12951  318391       0  318391  316742  1649.0    0.00  1807.2 44687.0    0.00 44687.0 44659.9   27.11
 1980 032    31       0   12954  318365       0  318365  316747  1618.2    0.00  1807.4 44686.0    0.00 44686.0 44659.7   26.25
 1980 033    32       0   12956  318340       0  318340  316749  1590.5    0.00  1807.5 44685.0    0.00 44685.0 44659.5   25.50
 1980 034    33       0   12958  318316       0  318316  316751  1565.0    0.00  1807.6 44684.0    0.00 44684.0 44659.2   24.80
 1980 035    34       0   12960  318294       0  318294  316753  1541.6    0.00  1807.7 44683.0    0.00 44683.0 44658.8   24.17
 1980 036    35       0   12962  318273       0  318273  316753  1520.4    0.00  1807.8 44682.0    0.00 44682.0 44658.4   23.61
 1980 037    36       0   12964  318251       0  318251  316755  1496.3    0.00  1807.9 44681.1    0.00 44681.1 44658.1   22.96
 1980 038    37       0   12966  318227       0  318227  316757  1469.8    0.00  1808.0 44680.1    0.00 44680.1 44657.9   22.23
 1980 039    38       0   12968  318202       0  318202  316760  1442.4    0.00  1808.1 44679.1    0.00 44679.1 44657.6   21.49
 1980 040    39       0   12970  318179       0  318179  316761  1417.3    0.00  1808.2 44678.1    0.00 44678.1 44657.3   20.81
 1980 041    40       0   12972  318156       0  318156  316762  1393.5    0.00  1808.3 44677.0    0.00 44677.0 44656.9   20.17
 1980 042    41       0   12974  318127       0  318127  316766  1361.3    0.00  1808.4 44675.9    0.00 44675.9 44656.7   19.29
 1980 043    42       0   12977  318101       0  318101  316768  1332.4    0.00  1808.6 44674.9    0.00 44674.9 44656.4   18.50
 1980 044    43       0   12978  318078       0  318078  316768  1310.4    0.00  1808.6 44673.8    0.00 44673.8 44655.9   17.94
 1980 045    44       0   12979  318057       0  318057  316767  1290.5    0.00  1808.7 44672.8    0.00 44672.8 44655.3   17.43
 1980 046    45       0   12980  318038       0  318038  316764  1273.1    0.00  1808.7 44671.8    0.00 44671.8 44654.8   17.00
 1980 047    46       0   12982  318017       0  318017  316763  1254.4    0.00  1808.7 44670.7    0.00 44670.7 44654.2   16.54
 1980 048    47       0   12983  317992       0  317992  316763  1229.1    0.00  1808.8 44669.6    0.00 44669.6 44653.7   15.88
 1980 049    48       0   12985  317970       0  317970  316763  1206.4    0.00  1808.8 44668.6    0.00 44668.6 44653.3   15.28
 1980 050    49       0   12985  317951       0  317951  316761  1189.4    0.00  1808.8 44667.6    0.00 44667.6 44652.7   14.86
 1980 051    50       0   12986  317934       0  317934  316758  1175.3    0.00  1808.8 44666.6    0.00 44666.6 44652.1   14.52
 1980 052    51       0   12987  317918       0  317918  316755  1163.2    0.00  1808.8 44665.8    0.00 44665.8 44651.5   14.24
 1980 053    52       0   12987  317904       0  317904  316752  1152.6    0.00  1808.8 44664.9    0.00 44664.9 44650.9   14.00
 1980 054    53       0   12987  317891       0  317891  316748  1142.5    0.00  1808.8 44664.1    0.00 44664.1 44650.3   13.78
 1980 055    54       0   12987  317877       0  317877  316744  1132.9    0.00  1808.7 44663.2    0.00 44663.2 44649.6   13.57
 1980 056    55       0   12987  317863       0  317863  316740  1122.7    0.00  1808.7 44662.3    0.00 44662.3 44649.0   13.35
 1980 057    56       0   12988  317849       0  317849  316736  1113.0    0.00  1808.7 44661.4    0.00 44661.4 44648.3   13.14
 1980 058    57       0   12988  317835       0  317835  316731  1103.7    0.00  1808.6 44660.5    0.00 44660.5 44647.6   12.94
 1980 059    58       0   12988  317821       0  317821  316727  1094.7    0.00  1808.6 44659.6    0.00 44659.6 44646.9   12.76
 1980 060    59       0   12988  317807       0  317807  316721  1085.9    0.00  1808.6 44658.7    0.00 44658.7 44646.1   12.58
 1980 061    60       0   12988  317793       0  317793  316716  1077.3    0.00  1808.5 44657.7    0.00 44657.7 44645.3   12.42
 1980 062    61       0   12988  317779       0  317779  316710  1069.0    0.00  1808.5 44656.7    0.00 44656.7 44644.5   12.26
 1980 063    62       0   12988  317759       0  317759  316706  1053.1    0.00  1808.5 44655.6    0.00 44655.6 44643.7   11.89
 1980 064    63       0   12988  317740       0  317740  316703  1037.5    0.00  1808.4 44654.6    0.00 44654.6 44643.1   11.53
 1980 065    64       0   12988  317724       0  317724  316699  1025.8    0.00  1808.4 44653.6    0.00 44653.6 44642.4   11.27
 1980 066    65       0   12989  317708       0  317708  316695  1013.1    0.00  1808.4 44652.7    0.00 44652.7 44641.7   10.98
 1980 067    66       0   12989  317692       0  317692  316691  1001.0    0.00  1808.3 44651.8    0.00 44651.8 44641.1   10.70
 1980 068    67       0   12989  317677       0  317677  316688   989.5    0.00  1808.3 44650.9    0.00 44650.9 44640.4   10.43
 1980 069    68       0   12989  317663       0  317663  316683   979.7    0.00  1808.2 44649.9    0.00 44649.9 44639.7   10.23
 1980 070    69       0   12989  317649       0  317649  316678   971.1    0.00  1808.2 44648.9    0.00 44648.9 44638.9   10.07
 1980 071    70       0   12989  317635       0  317635  316672   963.2    0.00  1808.1 44648.0    0.00 44648.0 44638.0    9.93
 1980 072    71       0   12988  317622       0  317622  316666   956.1    0.00  1808.0 44647.0    0.00 44647.0 44637.2    9.81
 1980 073    72       0   12988  317606       0  317606  316661   945.1    0.00  1807.9 44646.0    0.00 44646.0 44636.4    9.58
 1980 074    73       0   12988  317591       0  317591  316656   934.9    0.00  1807.9 44645.0    0.00 44645.0 44635.7    9.37
 1980 075    74       0   12988  317578       0  317578  316651   926.9    0.00  1807.8 44644.1    0.00 44644.1 44634.9    9.22
 1980 076    75       0   12988  317566       0  317566  316646   920.5    0.00  1807.7 44643.3    0.00 44643.3 44634.1    9.11
 1980 077    76       0   12987  317555       0  317555  316640   914.5    0.00  1807.6 44642.4    0.00 44642.4 44633.4    9.02
 1980 078    77       0   12987  317543       0  317543  316634   908.8    0.00  1807.6 44641.5    0.00 44641.5 44632.6    8.93
 1980 079    78       0   12986  317531       0  317531  316628   903.2    0.00  1807.5 44640.6    0.00 44640.6 44631.7    8.85
 1980 080    79       0   12986  317519       0  317519  316621   897.7    0.00  1807.4 44639.6    0.00 44639.6 44630.9    8.78
 1980 081    80       0   12986  317507       0  317507  316614   892.3    0.00  1807.3 44638.7    0.00 44638.7 44629.9    8.71
 1980 082    81       0   12985  317494       0  317494  316607   887.0    0.00  1807.2 44637.7    0.00 44637.7 44629.0    8.65
 1980 083    82       0   12985  317482       0  317482  316600   881.7    0.00  1807.2 44636.6    0.00 44636.6 44628.1    8.58
 1980 084    83       0   12984  317467       0  317467  316593   873.8    0.00  1807.1 44635.6    0.00 44635.6 44627.1    8.45
 1980 085    84       0   12984  317449       0  317449  316586   863.1    0.00  1807.0 44634.4    0.00 44634.4 44626.1    8.25
 1980 086    85       0   12983  317433       0  317433  316579   853.3    0.00  1806.9 44633.2    0.00 44633.2 44625.2    8.08
 1980 087    86       0   12983  317419       0  317419  316573   845.3    0.00  1806.8 44632.2    0.00 44632.2 44624.3    7.93
 1980 088    87       0   12983  317405       0  317405  316567   837.5    0.00  1806.8 44631.3    0.00 44631.3 44623.5    7.79
 1980 089    88       0   12983  317393       0  317393  316562   830.7    0.00  1806.7 44630.4    0.00 44630.4 44622.7    7.67
 1980 090    89       0   12982  317382       0  317382  316557   824.9    0.00  1806.6 44629.6    0.00 44629.6 44622.0    7.58
 1980 091    90       0   12982  317372       0  317372  316551   820.2    0.00  1806.5 44628.8    0.00 44628.8 44621.3    7.51
 1980 092    91       0   12981  317362       0  317362  316546   816.3    0.00  1806.5 44628.1    0.00 44628.1 44620.6    7.47
 1980 093    92       0   12981  317353       0  317353  316540   812.7    0.00  1806.4 44627.3    0.00 44627.3 44619.9    7.43
 1980 094    93       0   12981  317344       0  317344  316535   809.4    0.00  1806.3 44626.6    0.00 44626.6 44619.2    7.40
 1980 095    94       0   12980  317336       0  317336  316530   806.3    0.00  1806.3 44625.9    0.00 44625.9 44618.5    7.37
 1980 096    95       0   12980  317327       0  317327  316524   803.0    0.00  1806.2 44625.1    0.00 44625.1 44617.8    7.34
 1980 097    96       0   12979  317318       0  317318  316518   799.8    0.00  1806.1 44624.3    0.00 44624.3 44617.0    7.31
 1980 098    97       0   12979  317308       0  317308  316512   796.5    0.00  1806.1 44623.6    0.00 44623.6 44616.3    7.28
 1980 099    98       0   12979  317299       0  317299  316506   793.3    0.00  1806.0 44622.8    0.00 44622.8 44615.5    7.25
 1980 100    99       0   12978  317288       0  317288  316500   788.3    0.00  1806.0 44622.0    0.00 44622.0 44614.8    7.18
 1980 101   100       0   12978  317277       0  317277  316494   782.8    0.00  1805.9 44621.1    0.00 44621.1 44614.0    7.10
 1980 102   101       0   12978  317266       0  317266  316489   777.6    0.00  1805.8 44620.3    0.00 44620.3 44613.3    7.02
 1980 103   102       0   12977  317256       0  317256  316484   772.8    0.00  1805.8 44619.5    0.00 44619.5 44612.6    6.95
 1980 104   103       0   12977  317247       0  317247  316479   768.3    0.00  1805.7 44618.8    0.00 44618.8 44611.9    6.88
 1980 105   104       0   12977  317237       0  317237  316473   763.8    0.00  1805.6 44618.1    0.00 44618.1 44611.2    6.82
 1980 106   105       0   12976  317229       0  317229  316469   760.1    0.00  1805.6 44617.4    0.00 44617.4 44610.6    6.77
 1980 107   106       0   12976  317221       0  317221  316464   757.0    0.00  1805.5 44616.8    0.00 44616.8 44610.0    6.73
 1980 108   107       0   12976  317215       0  317215  316460   754.6    0.00  1805.4 44616.2    0.00 44616.2 44609.5    6.71
 1980 109   108       0   12975  317208       0  317208  316456   752.0    0.00  1805.4 44615.7    0.00 44615.7 44609.0    6.68
 1980 110   109       0   12975  317201       0  317201  316452   749.1    0.00  1805.3 44615.1    0.00 44615.1 44608.5    6.64
 1980 111   110       0   12975  317194       0  317194  316448   746.1    0.00  1805.3 44614.5    0.00 44614.5 44607.9    6.60
 1980 112   111       0   12975  317186       0  317186  316444   742.7    0.00  1805.2 44613.9    0.00 44613.9 44607.3    6.56
 1980 113   112       0   12974  317177       0  317177  316439   738.8    0.00  1805.2 44613.2    0.00 44613.2 44606.7    6.50
 1980 114   113       0   12974  317168       0  317168  316433   734.9    0.00  1805.1 44612.4    0.00 44612.4 44606.0    6.46
 1980 115   114       0   12973  317158       0  317158  316427   731.0    0.00  1805.0 44611.6    0.00 44611.6 44605.2    6.42
 1980 116   115       0   12973  317147       0  317147  316421   726.2    0.00  1804.9 44610.7    0.00 44610.7 44604.3    6.36
 1980 117   116       0   12972  317136       0  317136  316414   721.5    0.00  1804.8 44609.8    0.00 44609.8 44603.5    6.31
 1980 118   117       0   12972  317125       0  317125  316408   717.5    0.00  1804.7 44608.9    0.00 44608.9 44602.6    6.27
 1980 119   118       0   12971  317115       0  317115  316401   713.9    0.00  1804.7 44608.1    0.00 44608.1 44601.8    6.24
 1980 120   119       0   12971  317106       0  317106  316395   710.5    0.00  1804.6 44607.2    0.00 44607.2 44601.0    6.21
 1980 121   120       0   12970  317096       0  317096  316389   707.4    0.00  1804.5 44606.4    0.00 44606.4 44600.2    6.19
 1980 122   121       0   12970  317088       0  317088  316383   704.6    0.00  1804.5 44605.7    0.00 44605.7 44599.5    6.17
 1980 123   122       0   12970  317080       0  317080  316378   702.0    0.00  1804.4 44605.0    0.00 44605.0 44598.8    6.15
 1980 124   123       0   12969  317073       0  317073  316373   699.8    0.00  1804.4 44604.4    0.00 44604.4 44598.3    6.13
 1980 125   124       0   12969  317067       0  317067  316369   698.0    0.00  1804.3 44603.9    0.00 44603.9 44597.7    6.12
 1980 126   125       0   12969  317062       0  317062  316365   696.5    0.00  1804.3 44603.4    0.00 44603.4 44597.3    6.11
 1980 127   126       0   12969  317057       0  317057  316362   695.2    0.00  1804.3 44603.0    0.00 44603.0 44596.9    6.10
 1980 128   127       0   12969  317052       0  317052  316358   693.8    0.00  1804.2 44602.5    0.00 44602.5 44596.4    6.09
 1980 129   128       0   12969  317047       0  317047  316355   692.3    0.00  1804.2 44602.1    0.00 44602.1 44596.0    6.08
 1980 130   129       0   12968  317042       0  317042  316351   690.8    0.00  1804.2 44601.6    0.00 44601.6 44595.5    6.07
 1980 131   130       0   12968  317036       0  317036  316347   688.7    0.00  1804.2 44601.1    0.00 44601.1 44595.0    6.04
 1980 132   131       0   12968  317029       0  317029  316343   686.4    0.00  1804.1 44600.5    0.00 44600.5 44594.5    6.02
 1980 133   132       0   12968  317023       0  317023  316339   684.0    0.00  1804.1 44600.0    0.00 44600.0 44594.0    5.99
 1980 134   133       0   12967  317015       0  317015  316334   681.5    0.00  1804.0 44599.4    0.00 44599.4 44593.4    5.97
 1980 135   134       0   12967  317008       0  317008  316329   678.9    0.00  1804.0 44598.7    0.00 44598.7 44592.8    5.95
 1980 136   135       0   12967  317000       0  317000  316323   676.2    0.00  1803.9 44598.0    0.00 44598.0 44592.1    5.92
 1980 137   136       0   12967  316991       0  316991  316318   673.5    0.00  1803.9 44597.3    0.00 44597.3 44591.4    5.90
 1980 138   137       0   12966  316983       0  316983  316312   670.5    0.00  1803.8 44596.6    0.00 44596.6 44590.7    5.87
 1980 139   138       0   12966  316975       0  316975  316307   667.9    0.00  1803.8 44595.9    0.00 44595.9 44590.1    5.84
 1980 140   139       0   12966  316968       0  316968  316302   665.6    0.00  1803.8 44595.3    0.00 44595.3 44589.5    5.82
 1980 141   140       0   12966  316961       0  316961  316298   663.4    0.00  1803.7 44594.7    0.00 44594.7 44588.9    5.80
 1980 142   141       0   12965  316955       0  316955  316293   661.3    0.00  1803.7 44594.2    0.00 44594.2 44588.4    5.79
 1980 143   142       0   12965  316948       0  316948  316289   659.0    0.00  1803.6 44593.6    0.00 44593.6 44587.8    5.76
 1980 144   143       0   12965  316940       0  316940  316284   656.3    0.00  1803.6 44593.0    0.00 44593.0 44587.2    5.74
 1980 145   144       0   12964  316933       0  316933  316279   653.5    0.00  1803.5 44592.4    0.00 44592.4 44586.7    5.71
 1980 146   145       0   12964  316926       0  316926  316275   651.0    0.00  1803.5 44591.8    0.00 44591.8 44586.1    5.69
 1980 147   146       0   12964  316919       0  316919  316271   648.7    0.00  1803.4 44591.2    0.00 44591.2 44585.6    5.67
 1980 148   147       0   12963  316913       0  316913  316266   646.5    0.00  1803.4 44590.7    0.00 44590.7 44585.0    5.65
 1980 149   148       0   12963  316906       0  316906  316262   644.3    0.00  1803.3 44590.1    0.00 44590.1 44584.5    5.63
 1980 150   149       0   12963  316899       0  316899  316257   641.9    0.00  1803.3 44589.5    0.00 44589.5 44583.9    5.61
 1980 151   150       0   12963  316891       0  316891  316252   639.2    0.00  1803.2 44588.9    0.00 44588.9 44583.3    5.59
 1980 152   151       0   12962  316884       0  316884  316247   636.7    0.00  1803.2 44588.3    0.00 44588.3 44582.7    5.56
 1980 153   152       0   12962  316877       0  316877  316243   634.3    0.00  1803.1 44587.7    0.00 44587.7 44582.1    5.54
 1980 154   153       0   12962  316871       0  316871  316238   632.2    0.00  1803.1 44587.1    0.00 44587.1 44581.6    5.52
 1980 155   154       0   12961  316864       0  316864  316234   630.0    0.00  1803.1 44586.6    0.00 44586.6 44581.1    5.50
 1980 156   155       0   12961  316859       0  316859  316231   628.1    0.00  1803.0 44586.1    0.00 44586.1 44580.7    5.49
 1980 157   156       0   12961  316853       0  316853  316227   626.3    0.00  1803.0 44585.7    0.00 44585.7 44580.2    5.47
 1980 158   157       0   12961  316848       0  316848  316223   624.6    0.00  1802.9 44585.2    0.00 44585.2 44579.8    5.46
 1980 159   158       0   12960  316843       0  316843  316220   623.0    0.00  1802.9 44584.8    0.00 44584.8 44579.3    5.45
 1980 160   159       0   12960  316837       0  316837  316216   621.2    0.00  1802.9 44584.3    0.00 44584.3 44578.8    5.44
 1980 161   160       0   12960  316831       0  316831  316211   619.4    0.00  1802.8 44583.7    0.00 44583.7 44578.3    5.42
 1980 162   161       0   12960  316824       0  316824  316207   616.9    0.00  1802.8 44583.1    0.00 44583.1 44577.7    5.40
 1980 163   162       0   12959  316817       0  316817  316202   614.7    0.00  1802.7 44582.5    0.00 44582.5 44577.1    5.38
 1980 164   163       0   12959  316810       0  316810  316197   612.5    0.00  1802.7 44582.0    0.00 44582.0 44576.6    5.37
 1980 165   164       0   12959  316804       0  316804  316193   610.5    0.00  1802.6 44581.4    0.00 44581.4 44576.1    5.35
 1980 166   165       0   12959  316798       0  316798  316189   608.6    0.00  1802.6 44580.9    0.00 44580.9 44575.6    5.33
 1980 167   166       0   12958  316792       0  316792  316185   606.8    0.00  1802.5 44580.4    0.00 44580.4 44575.1    5.32
 1980 168   167       0   12958  316787       0  316787  316182   605.1    0.00  1802.5 44580.0    0.00 44580.0 44574.7    5.31
 1980 169   168       0   12958  316782       0  316782  316178   603.4    0.00  1802.5 44579.5    0.00 44579.5 44574.2    5.29
 1980 170   169       0   12958  316777       0  316777  316175   601.8    0.00  1802.4 44579.1    0.00 44579.1 44573.8    5.28
 1980 171   170       0   12957  316771       0  316771  316171   600.0    0.00  1802.4 44578.6    0.00 44578.6 44573.3    5.27
 1980 172   171       0   12957  316765       0  316765  316167   598.2    0.00  1802.3 44578.1    0.00 44578.1 44572.9    5.25
 1980 173   172       0   12957  316759       0  316759  316163   596.3    0.00  1802.3 44577.6    0.00 44577.6 44572.4    5.24
 1980 174   173       0   12957  316754       0  316754  316159   594.5    0.00  1802.3 44577.1    0.00 44577.1 44571.9    5.23
 1980 175   174       0   12956  316748       0  316748  316156   592.8    0.00  1802.2 44576.7    0.00 44576.7 44571.4    5.21
 1980 176   175       0   12956  316743       0  316743  316152   591.2    0.00  1802.2 44576.2    0.00 44576.2 44571.0    5.20
 1980 177   176       0   12956  316738       0  316738  316149   589.6    0.00  1802.1 44575.8    0.00 44575.8 44570.6    5.19
 1980 178   177       0   12956  316734       0  316734  316145   588.2    0.00  1802.1 44575.3    0.00 44575.3 44570.2    5.18
 1980 179   178       0   12956  316729       0  316729  316142   586.8    0.00  1802.1 44574.9    0.00 44574.9 44569.8    5.17
 1980 180   179       0   12955  316724       0  316724  316139   585.3    0.00  1802.1 44574.5    0.00 44574.5 44569.4    5.16
 1980 181   180       0   12955  316720       0  316720  316136   583.9    0.00  1802.0 44574.1    0.00 44574.1 44569.0    5.15
 1980 182   181       0   12955  316714       0  316714  316132   582.3    0.00  1802.0 44573.7    0.00 44573.7 44568.5    5.14
 1980 183   182       0   12955  316709       0  316709  316129   580.8    0.00  1801.9 44573.2    0.00 44573.2 44568.1    5.13
 1980 184   183       0   12955  316704       0  316704  316125   579.4    0.00  1801.9 44572.8    0.00 44572.8 44567.7    5.12
 1980 185   184       0   12954  316699       0  316699  316122   577.8    0.00  1801.9 44572.3    0.00 44572.3 44567.2    5.11
 1980 186   185       0   12954  316695       0  316695  316118   576.3    0.00  1801.8 44571.9    0.00 44571.9 44566.8    5.10
 1980 187   186       0   12954  316690       0  316690  316115   575.0    0.00  1801.8 44571.5    0.00 44571.5 44566.4    5.09
 1980 188   187       0   12954  316686       0  316686  316112   573.7    0.00  1801.8 44571.1    0.00 44571.1 44566.1    5.08
 1980 189   188       0   12954  316681       0  316681  316109   572.3    0.00  1801.7 44570.7    0.00 44570.7 44565.7    5.07
 1980 190   189       0   12953  316676       0  316676  316105   570.8    0.00  1801.7 44570.3    0.00 44570.3 44565.2    5.06
 1980 191   190       0   12953  316671       0  316671  316102   569.3    0.00  1801.7 44569.8    0.00 44569.8 44564.8    5.05
 1980 192   191       0   12953  316666       0  316666  316098   567.8    0.00  1801.6 44569.4    0.00 44569.4 44564.3    5.04
 1980 193   192       0   12953  316661       0  316661  316094   566.2    0.00  1801.6 44568.9    0.00 44568.9 44563.9    5.03
 1980 194   193       0   12953  316656       0  316656  316091   564.7    0.00  1801.6 44568.5    0.00 44568.5 44563.4    5.02
 1980 195   194       0   12952  316651       0  316651  316087   563.3    0.00  1801.5 44568.0    0.00 44568.0 44563.0    5.01
 1980 196   195       0   12952  316646       0  316646  316084   561.8    0.00  1801.5 44567.6    0.00 44567.6 44562.6    5.00
 1980 197   196       0   12952  316641       0  316641  316081   560.4    0.00  1801.5 44567.2    0.00 44567.2 44562.2    4.99
 1980 198   197       0   12952  316636       0  316636  316077   559.1    0.00  1801.4 44566.7    0.00 44566.7 44561.8    4.98
 1980 199   198       0   12952  316632       0  316632  316074   557.9    0.00  1801.4 44566.3    0.00 44566.3 44561.3    4.97
 1980 200   199       0   12951  316627       0  316627  316070   556.6    0.00  1801.4 44565.9    0.00 44565.9 44560.9    4.96
 1980 201   200       0   12951  316622       0  316622  316067   555.3    0.00  1801.4 44565.4    0.00 44565.4 44560.5    4.96
 1980 202   201       0   12951  316617       0  316617  316063   554.1    0.00  1801.3 44565.0    0.00 44565.0 44560.0    4.95
 1980 203   202       0   12951  316611       0  316611  316059   552.5    0.00  1801.3 44564.5    0.00 44564.5 44559.5    4.94
 1980 204   203       0   12951  316606       0  316606  316055   550.7    0.00  1801.2 44563.9    0.00 44563.9 44559.0    4.93
 1980 205   204       0   12950  316600       0  316600  316051   549.0    0.00  1801.2 44563.5    0.00 44563.5 44558.5    4.91
 1980 206   205       0   12950  316595       0  316595  316047   547.5    0.00  1801.2 44563.0    0.00 44563.0 44558.1    4.90
 1980 207   206       0   12950  316590       0  316590  316044   546.2    0.00  1801.1 44562.5    0.00 44562.5 44557.6    4.90
 1980 208   207       0   12950  316584       0  316584  316040   544.5    0.00  1801.1 44562.1    0.00 44562.1 44557.2    4.88
 1980 209   208       0   12950  316579       0  316579  316036   543.0    0.00  1801.1 44561.6    0.00 44561.6 44556.7    4.87
 1980 210   209       0   12949  316573       0  316573  316032   541.3    0.00  1801.0 44561.1    0.00 44561.1 44556.2    4.86
 1980 211   210       0   12949  316568       0  316568  316028   539.7    0.00  1801.0 44560.6    0.00 44560.6 44555.8    4.85
 1980 212   211       0   12949  316563       0  316563  316025   538.2    0.00  1801.0 44560.2    0.00 44560.2 44555.3    4.84
 1980 213   212       0   12949  316558       0  316558  316021   536.8    0.00  1800.9 44559.8    0.00 44559.8 44554.9    4.83
 1980 214   213       0   12949  316554       0  316554  316018   535.6    0.00  1800.9 44559.4    0.00 44559.4 44554.6    4.83
 1980 215   214       0   12948  316550       0  316550  316015   534.5    0.00  1800.9 44559.0    0.00 44559.0 44554.2    4.82
 1980 216   215       0   12948  316545       0  316545  316012   533.3    0.00  1800.8 44558.6    0.00 44558.6 44553.8    4.81
 1980 217   216       0   12948  316541       0  316541  316009   532.1    0.00  1800.8 44558.2    0.00 44558.2 44553.4    4.80
 1980 218   217       0   12948  316536       0  316536  316005   530.6    0.00  1800.8 44557.7    0.00 44557.7 44552.9    4.79
 1980 219   218       0   12948  316531       0  316531  316001   529.2    0.00  1800.7 44557.3    0.00 44557.3 44552.5    4.79
 1980 220   219       0   12947  316526       0  316526  315998   527.8    0.00  1800.7 44556.8    0.00 44556.8 44552.1    4.78
 1980 221   220       0   12947  316521       0  316521  315994   526.3    0.00  1800.7 44556.4    0.00 44556.4 44551.6    4.77
 1980 222   221       0   12947  316516       0  316516  315991   524.8    0.00  1800.6 44556.0    0.00 44556.0 44551.2    4.76
 1980 223   222       0   12947  316511       0  316511  315987   523.4    0.00  1800.6 44555.5    0.00 44555.5 44550.8    4.75
 1980 224   223       0   12947  316505       0  316505  315983   522.0    0.00  1800.6 44555.0    0.00 44555.0 44550.3    4.74
 1980 225   224       0   12946  316500       0  316500  315980   520.6    0.00  1800.5 44554.6    0.00 44554.6 44549.8    4.73
 1980 226   225       0   12946  316495       0  316495  315976   519.4    0.00  1800.5 44554.1    0.00 44554.1 44549.4    4.72
 1980 227   226       0   12946  316491       0  316491  315973   518.2    0.00  1800.5 44553.7    0.00 44553.7 44549.0    4.72
 1980 228   227       0   12946  316486       0  316486  315969   517.0    0.00  1800.4 44553.2    0.00 44553.2 44548.5    4.71
 1980 229   228       0   12946  316482       0  316482  315966   515.9    0.00  1800.4 44552.8    0.00 44552.8 44548.1    4.70
 1980 230   229       0   12945  316476       0  316476  315962   514.3    0.00  1800.4 44552.3    0.00 44552.3 44547.6    4.69
 1980 231   230       0   12945  316470       0  316470  315957   512.5    0.00  1800.3 44551.8    0.00 44551.8 44547.1    4.68
 1980 232   231       0   12945  316464       0  316464  315953   510.7    0.00  1800.3 44551.2    0.00 44551.2 44546.5    4.67
 1980 233   232       0   12945  316458       0  316458  315949   508.9    0.00  1800.3 44550.7    0.00 44550.7 44546.0    4.66
 1980 234   233       0   12944  316452       0  316452  315945   507.2    0.00  1800.2 44550.2    0.00 44550.2 44545.5    4.65
 1980 235   234       0   12944  316447       0  316447  315941   505.8    0.00  1800.2 44549.7    0.00 44549.7 44545.1    4.64
 1980 236   235       0   12944  316442       0  316442  315938   504.5    0.00  1800.1 44549.3    0.00 44549.3 44544.6    4.63
 1980 237   236       0   12944  316438       0  316438  315934   503.3    0.00  1800.1 44548.9    0.00 44548.9 44544.2    4.62
 1980 238   237       0   12944  316433       0  316433  315931   502.2    0.00  1800.1 44548.5    0.00 44548.5 44543.9    4.62
 1980 239   238       0   12944  316429       0  316429  315928   501.2    0.00  1800.1 44548.1    0.00 44548.1 44543.5    4.61
 1980 240   239       0   12943  316425       0  316425  315925   500.2    0.00  1800.1 44547.7    0.00 44547.7 44543.1    4.60
 1980 241   240       0   12943  316421       0  316421  315922   499.3    0.00  1800.0 44547.3    0.00 44547.3 44542.8    4.60
 1980 242   241       0   12943  316417       0  316417  315919   498.5    0.00  1800.0 44547.0    0.00 44547.0 44542.4    4.59
 1980 243   242       0   12943  316413       0  316413  315916   497.5    0.00  1800.0 44546.6    0.00 44546.6 44542.0    4.59
 1980 244   243       0   12943  316409       0  316409  315913   496.6    0.00  1800.0 44546.2    0.00 44546.2 44541.6    4.58
 1980 245   244       0   12943  316405       0  316405  315909   495.6    0.00  1799.9 44545.8    0.00 44545.8 44541.2    4.58
 1980 246   245       0   12943  316400       0  316400  315906   494.5    0.00  1799.9 44545.3    0.00 44545.3 44540.8    4.57
 1980 247   246       0   12942  316395       0  316395  315902   493.2    0.00  1799.9 44544.9    0.00 44544.9 44540.3    4.56
 1980 248   247       0   12942  316390       0  316390  315898   491.9    0.00  1799.9 44544.4    0.00 44544.4 44539.8    4.55
 1980 249   248       0   12942  316385       0  316385  315894   490.7    0.00  1799.8 44543.9    0.00 44543.9 44539.4    4.55
 1980 250   249       0   12942  316380       0  316380  315891   489.6    0.00  1799.8 44543.5    0.00 44543.5 44539.0    4.54
 1980 251   250       0   12942  316376       0  316376  315887   488.5    0.00  1799.8 44543.1    0.00 44543.1 44538.6    4.53
 1980 252   251       0   12942  316371       0  316371  315884   487.3    0.00  1799.8 44542.6    0.00 44542.6 44538.1    4.52
 1980 253   252       0   12942  316366       0  316366  315880   486.2    0.00  1799.8 44542.2    0.00 44542.2 44537.7    4.52
 1980 254   253       0   12941  316361       0  316361  315876   484.9    0.00  1799.7 44541.8    0.00 44541.8 44537.2    4.51
 1980 255   254       0   12941  316356       0  316356  315872   483.7    0.00  1799.7 44541.3    0.00 44541.3 44536.8    4.50
 1980 256   255       0   12941  316351       0  316351  315869   482.5    0.00  1799.7 44540.8    0.00 44540.8 44536.3    4.49
 1980 257   256       0   12941  316346       0  316346  315865   481.3    0.00  1799.7 44540.4    0.00 44540.4 44535.9    4.49
 1980 258   257       0   12941  316341       0  316341  315861   480.1    0.00  1799.6 44539.9    0.00 44539.9 44535.4    4.48
 1980 259   258       0   12941  316336       0  316336  315857   478.8    0.00  1799.6 44539.4    0.00 44539.4 44534.9    4.47
 1980 260   259       0   12940  316330       0  316330  315853   477.4    0.00  1799.6 44538.9    0.00 44538.9 44534.5    4.46
 1980 261   260       0   12940  316325       0  316325  315849   476.1    0.00  1799.5 44538.4    0.00 44538.4 44534.0    4.45
 1980 262   261       0   12940  316320       0  316320  315845   475.0    0.00  1799.5 44538.0    0.00 44538.0 44533.6    4.45
 1980 263   262       0   12940  316316       0  316316  315842   474.0    0.00  1799.5 44537.6    0.00 44537.6 44533.2    4.44
 1980 264   263       0   12940  316312       0  316312  315839   473.0    0.00  1799.5 44537.2    0.00 44537.2 44532.8    4.44
 1980 265   264       0   12940  316308       0  316308  315836   472.1    0.00  1799.5 44536.9    0.00 44536.9 44532.4    4.43
 1980 266   265       0   12940  316303       0  316303  315832   471.1    0.00  1799.4 44536.5    0.00 44536.5 44532.0    4.42
 1980 267   266       0   12939  316299       0  316299  315829   470.1    0.00  1799.4 44536.0    0.00 44536.0 44531.6    4.42
 1980 268   267       0   12939  316294       0  316294  315825   469.1    0.00  1799.4 44535.6    0.00 44535.6 44531.2    4.41
 1980 269   268       0   12939  316290       0  316290  315822   468.1    0.00  1799.4 44535.2    0.00 44535.2 44530.8    4.40
 1980 270   269       0   12939  316286       0  316286  315819   467.2    0.00  1799.4 44534.8    0.00 44534.8 44530.4    4.40
 1980 271   270       0   12939  316282       0  316282  315815   466.3    0.00  1799.3 44534.4    0.00 44534.4 44530.0    4.39
 1980 272   271       0   12939  316277       0  316277  315812   465.4    0.00  1799.3 44534.0    0.00 44534.0 44529.6    4.39
 1980 273   272       0   12939  316273       0  316273  315809   464.5    0.00  1799.3 44533.6    0.00 44533.6 44529.3    4.38
 1980 274   273       0   12939  316269       0  316269  315805   463.5    0.00  1799.3 44533.2    0.00 44533.2 44528.9    4.38
 1980 275   274       0   12939  316264       0  316264  315802   462.4    0.00  1799.3 44532.8    0.00 44532.8 44528.4    4.37
 1980 276   275       0   12938  316259       0  316259  315798   461.2    0.00  1799.2 44532.3    0.00 44532.3 44528.0    4.36
 1980 277   276       0   12938  316253       0  316253  315793   459.4    0.00  1799.2 44531.8    0.00 44531.8 44527.5    4.35
 1980 278   277       0   12938  316246       0  316246  315789   457.7    0.00  1799.2 44531.2    0.00 44531.2 44526.9    4.34
 1980 279   278       0   12938  316241       0  316241  315785   456.2    0.00  1799.1 44530.7    0.00 44530.7 44526.4    4.33
 1980 280   279       0   12937  316236       0  316236  315781   454.8    0.00  1799.1 44530.3    0.00 44530.3 44526.0    4.32
 1980 281   280       0   12937  316231       0  316231  315777   453.7    0.00  1799.1 44529.9    0.00 44529.9 44525.6    4.31
 1980 282   281       0   12937  316227       0  316227  315774   452.6    0.00  1799.0 44529.5    0.00 44529.5 44525.2    4.31
 1980 283   282       0   12937  316223       0  316223  315771   451.6    0.00  1799.0 44529.1    0.00 44529.1 44524.8    4.30
 1980 284   283       0   12937  316218       0  316218  315768   450.5    0.00  1799.0 44528.7    0.00 44528.7 44524.4    4.29
 1980 285   284       0   12937  316214       0  316214  315764   449.4    0.00  1799.0 44528.3    0.00 44528.3 44524.0    4.29
 1980 286   285       0   12936  316209       0  316209  315761   448.2    0.00  1798.9 44527.9    0.00 44527.9 44523.6    4.28
 1980 287   286       0   12936  316205       0  316205  315757   447.1    0.00  1798.9 44527.5    0.00 44527.5 44523.2    4.27
 1980 288   287       0   12936  316200       0  316200  315754   446.0    0.00  1798.9 44527.0    0.00 44527.0 44522.7    4.27
 1980 289   288       0   12936  316198       4  316194  315750   444.6    0.00  1798.8 44526.8    0.34 44526.5 44522.2    4.26
 1980 290   289       0   12936  316200      11  316189  315745   443.2    0.00  1798.8 44526.7    0.73 44526.0 44521.7    4.25
 1980 291   290       0   12935  316203      20  316183  315741   441.8    0.00  1798.8 44526.6    1.18 44525.4 44521.2    4.24
 1980 292   291       0   12935  316209      32  316176  315736   440.4    0.00  1798.7 44526.6    1.75 44524.8 44520.6    4.24
 1980 293   292       0   12935  316213      43  316170  315731   439.0    0.00  1798.7 44526.5    2.26 44524.2 44520.0    4.23
 1980 294   293       0   12935  316217      53  316164  315726   437.7    0.00  1798.6 44526.3    2.71 44523.6 44519.4    4.23
 1980 295   294       0   12934  316221      63  316158  315721   436.3    0.00  1798.6 44526.2    3.15 44523.1 44518.8    4.22
 1980 296   295       0   12934  316226      73  316152  315717   435.2    0.00  1798.6 44526.1    3.63 44522.5 44518.3    4.22
 1980 297   296       0   12934  316227      81  316147  315713   434.0    0.00  1798.5 44526.0    3.94 44522.0 44517.8    4.22
 1980 298   297       0   12934  316227      85  316142  315709   433.0    0.00  1798.5 44525.7    4.15 44521.6 44517.3    4.21
 1980 299   298       0   12934  316227      89  316138  315705   432.0    0.00  1798.5 44525.4    4.31 44521.1 44516.9    4.21
 1980 300   299       0   12934  316232      99  316133  315702   431.3    0.00  1798.5 44525.5    4.78 44520.7 44516.5    4.21
 1980 301   300       0   12933  316244     115  316129  315698   430.7    0.00  1798.4 44525.8    5.52 44520.2 44516.0    4.21
 1980 302   301       0   12933  316254     129  316124  315694   430.0    0.00  1798.4 44525.9    6.13 44519.8 44515.6    4.21
 1980 303   302       0   12933  316264     145  316120  315690   429.2    0.00  1798.4 44526.1    6.81 44519.3 44515.1    4.21
 1980 304   303       0   12933  316272     158  316114  315686   428.0    0.00  1798.4 44526.1    7.39 44518.7 44514.5    4.21
 1980 305   304       0   12933  316276     167  316108  315682   426.5    0.00  1798.3 44525.9    7.77 44518.2 44514.0    4.20
 1980 306   305       0   12932  316275     173  316103  315678   425.0    0.00  1798.3 44525.6    7.99 44517.7 44513.5    4.20
 1980 307   306       0   12932  316276     178  316097  315674   423.5    0.00  1798.2 44525.4    8.24 44517.1 44512.9    4.19
 1980 308   307       0   12932  316282     190  316092  315670   422.3    0.00  1798.2 44525.4    8.74 44516.6 44512.5    4.19
 1980 309   308       0   12932  316293     206  316087  315666   421.4    0.00  1798.1 44525.6    9.47 44516.1 44512.0    4.19
 1980 310   309       0   12931  316307     225  316082  315662   420.4    0.00  1798.1 44525.9   10.26 44515.6 44511.4    4.19
 1980 311   310       0   12931  316319     243  316077  315658   419.2    0.00  1798.1 44526.1   11.03 44515.1 44510.9    4.19
 1980 312   311       0   12931  316326     255  316071  315653   417.8    0.00  1798.0 44526.0   11.54 44514.5 44510.3    4.19
 1980 313   312       0   12931  316335     269  316066  315649   416.6    0.00  1798.0 44526.1   12.15 44514.0 44509.8    4.19
 1980 314   313       0   12930  316343     282  316061  315645   415.5    0.00  1797.9 44526.1   12.68 44513.5 44509.3    4.18
 1980 315   314       0   12930  316349     293  316056  315642   414.3    0.00  1797.9 44526.1   13.15 44513.0 44508.8    4.18
 1980 316   315       0   12930  316353     301  316052  315639   413.3    0.00  1797.9 44526.1   13.51 44512.5 44508.4    4.18
 1980 317   316       0   12930  316359     311  316048  315636   412.2    0.00  1797.8 44526.0   13.93 44512.1 44507.9    4.17
 1980 318   317       0   12930  316365     322  316044  315632   411.2    0.00  1797.8 44526.1   14.40 44511.7 44507.5    4.17
 1980 319   318       0   12929  316374     335  316040  315629   410.2    0.00  1797.8 44526.2   14.96 44511.2 44507.1    4.17
 1980 320   319       0   12929  316391     355  316036  315626   409.4    0.00  1797.7 44526.6   15.85 44510.8 44506.6    4.17
 1980 321   320       0   12929  316411     380  316031  315623   408.5    0.00  1797.7 44527.2   16.91 44510.3 44506.1    4.18
 1980 322   321       0   12929  316433     406  316027  315619   407.6    0.00  1797.7 44527.7   18.01 44509.7 44505.6    4.19
 1980 323   322       0   12929  316440     419  316021  315615   406.1    0.00  1797.6 44527.7   18.50 44509.2 44505.0    4.18
 1980 324   323       0   12928  316454     437  316016  315611   404.8    0.00  1797.6 44527.9   19.33 44508.6 44504.4    4.18
 1980 325   324       0   12928  316470     458  316012  315608   403.7    0.00  1797.5 44528.3   20.22 44508.1 44503.9    4.18
 1980 326   325       0   12928  316489     482  316007  315605   402.8    0.00  1797.5 44528.8   21.22 44507.6 44503.4    4.19
 1980 327   326       0   12928  316505     502  316003  315601   401.9    0.00  1797.4 44529.1   22.03 44507.1 44502.9    4.19
 1980 328   327       0   12928  316528     528  316000  315598   401.2    0.00  1797.4 44529.8   23.15 44506.6 44502.4    4.20
 1980 329   328       0   12928  316544     548  315996  315595   400.3    0.00  1797.4 44530.1   23.96 44506.1 44501.9    4.20
 1980 330   329       0   12927  316555     563  315992  315592   399.2    0.00  1797.3 44530.2   24.58 44505.7 44501.5    4.20
 1980 331   330       0   12927  316565     577  315988  315589   398.2    0.00  1797.3 44530.4   25.20 44505.2 44501.0    4.19
 1980 332   331       0   12927  316573     589  315984  315587   397.1    0.00  1797.3 44530.4   25.72 44504.7 44500.5    4.19
 1980 333   332       0   12927  316594     614  315981  315584   396.5    0.00  1797.2 44531.0   26.76 44504.3 44500.1    4.20
 1980 334   333       0   12927  316616     639  315977  315581   395.9    0.00  1797.2 44531.7   27.88 44503.8 44499.6    4.20
 1980 335   334       0   12927  316640     665  315974  315579   395.4    0.00  1797.2 44532.4   28.97 44503.4 44499.2    4.21
 1980 336   335       0   12927  316668     696  315971  315576   395.2    0.00  1797.2 44533.2   30.21 44503.0 44498.8    4.22
 1980 337   336       0   12927  316694     725  315968  315573   394.7    0.00  1797.1 44533.9   31.41 44502.5 44498.3    4.23
 1980 338   337       0   12927  316721     756  315965  315571   394.3    0.00  1797.1 44534.8   32.70 44502.1 44497.8    4.24
 1980 339   338       0   12927  316744     783  315962  315568   393.6    0.00  1797.1 44535.4   33.83 44501.6 44497.4    4.24
 1980 340   339       0   12927  316766     807  315958  315565   393.0    0.00  1797.0 44536.0   34.83 44501.1 44496.9    4.25
 1980 341   340       0   12927  316784     829  315955  315563   392.4    0.00  1797.0 44536.4   35.72 44500.7 44496.4    4.25
 1980 342   341       0   12927  316806     854  315952  315560   391.9    0.00  1797.0 44536.9   36.68 44500.2 44496.0    4.26
 1980 343   342       0   12927  316828     879  315950  315558   391.6    0.00  1796.9 44537.5   37.66 44499.8 44495.5    4.27
 1980 344   343       0   12927  316854     907  315947  315556   391.5    0.00  1796.9 44538.1   38.75 44499.4 44495.1    4.28
 1980 345   344       0   12927  316884     939  315945  315553   391.7    0.00  1796.9 44538.9   39.96 44498.9 44494.6    4.30
 1980 346   345       0   12927  316916     973  315943  315551   392.0    0.00  1796.9 44539.7   41.25 44498.4 44494.1    4.32
 1980 347   346       0   12927  316946    1006  315940  315548   392.0    0.00  1796.8 44540.6   42.65 44498.0 44493.6    4.33
 1980 348   347       0   12927  316968    1030  315938  315546   391.6    0.00  1796.8 44541.1   43.58 44497.5 44493.2    4.34
 1980 349   348       0   12927  316992    1056  315936  315544   391.4    0.00  1796.8 44541.7   44.63 44497.1 44492.7    4.35
 1980 350   349       0   12927  317015    1081  315933  315542   391.1    0.00  1796.7 44542.2   45.60 44496.6 44492.3    4.35
 1980 351   350       0   12927  317040    1108  315931  315540   391.0    0.00  1796.7 44542.9   46.67 44496.2 44491.9    4.37
 1980 352   351       0   12927  317060    1131  315929  315539   390.7    0.00  1796.7 44543.4   47.59 44495.8 44491.5    4.37
 1980 353   352       0   12927  317081    1154  315927  315537   390.3    0.00  1796.7 44544.1   48.64 44495.4 44491.1    4.38
 1980 354   353       0   12927  317108    1182  315926  315536   390.4    0.00  1796.7 44544.9   49.81 44495.1 44490.7    4.39
 1980 355   354       0   12928  317126    1202  315924  315534   390.1    0.00  1796.6 44545.3   50.65 44494.7 44490.3    4.39
 1980 356   355       0   12928  317139    1218  315921  315532   389.4    0.00  1796.6 44545.6   51.37 44494.2 44489.8    4.39
 1980 357   356       0   12928  317148    1230  315918  315530   388.6    0.00  1796.6 44545.7   51.91 44493.8 44489.4    4.38
 1980 358   357       0   12928  317160    1244  315916  315528   388.0    0.00  1796.6 44545.8   52.50 44493.3 44488.9    4.38
 1980 359   358       0   12928  317179    1265  315914  315526   388.0    0.00  1796.6 44546.2   53.36 44492.9 44488.5    4.39
 1980 360   359       0   12929  317200    1288  315912  315524   388.3    0.00  1796.6 44546.7   54.25 44492.4 44488.0    4.40
 1980 361   360       0   12929  317225    1314  315911  315522   388.8    0.00  1796.6 44547.2   55.23 44492.0 44487.6    4.42
 1980 362   361       0   12929  317253    1343  315910  315520   389.5    0.00  1796.6 44547.9   56.36 44491.6 44487.1    4.44
 1980 363   362       0   12929  317279    1371  315909  315519   389.9    0.00  1796.5 44548.7   57.56 44491.1 44486.7    4.45
 1980 364   363       0   12930  317306    1399  315907  315517   390.4    0.00  1796.5 44549.4   58.73 44490.7 44486.2    4.47
 1980 365   364       0   12930  317338    1431  315907  315515   391.5    0.00  1796.5 44550.2   59.98 44490.3 44485.8    4.49
 1980 366   365       0   12930  317369    1463  315906  315514   392.5    0.00  1796.5 44551.0   61.16 44489.9 44485.3    4.52
 1981 001   366       0   12931  317402    1495  315906  315513   393.6    0.00  1796.5 44551.9   62.41 44489.5 44484.9    4.54
 1981 002   367       0   12931  317438    1532  315906  315511   394.9    0.00  1796.5 44552.9   63.80 44489.1 44484.5    4.57
 1981 003   368       0   12931  317468    1562  315906  315510   395.7    0.00  1796.5 44553.7   65.03 44488.7 44484.1    4.59
 1981 004   369       0   12932  317499    1594  315905  315509   396.1    0.00  1796.5 44554.6   66.33 44488.2 44483.6    4.61
 1981 005   370       0   12932  317518    1615  315903  315507   396.0    0.00  1796.5 44555.0   67.21 44487.8 44483.2    4.61
 1981 006   371       0   12933  317541    1638  315903  315506   396.2    0.00  1796.5 44555.6   68.20 44487.4 44482.8    4.62
 1981 007   372       0   12933  317567    1665  315902  315506   396.3    0.00  1796.5 44556.5   69.49 44487.0 44482.4    4.63
 1981 008   373       0   12934  317582    1679  315902  315506   396.1    0.00  1796.5 44556.8   70.18 44486.7 44482.0    4.63
 1981 009   374       0   12934  317564    1662  315902  315506   395.8    0.00  1796.5 44556.0   69.71 44486.3 44481.7    4.63
 1981 010   375       0   12935  317550    1648  315902  315506   395.9    0.00  1796.5 44555.3   69.32 44486.0 44481.4    4.64
 1981 011   376       0   12936  317541    1639  315903  315506   396.2    0.00  1796.5 44554.7   69.06 44485.7 44481.0    4.65
 1981 012   377       0   12936  317537    1634  315903  315506   397.1    0.00  1796.5 44554.3   68.93 44485.4 44480.7    4.67
 1981 013   378       0   12937  317532    1629  315904  315506   397.9    0.00  1796.5 44553.9   68.85 44485.0 44480.4    4.69
 1981 014   379       0   12937  317526    1623  315904  315506   398.3    0.00  1796.5 44553.4   68.71 44484.7 44480.0    4.70
 1981 015   380       0   12938  317517    1613  315904  315505   398.4    0.00  1796.5 44552.9   68.54 44484.4 44479.7    4.71
 1981 016   381       0   12938  317504    1600  315904  315506   397.7    0.00  1796.5 44552.3   68.23 44484.1 44479.4    4.70
 1981 017   382       0   12939  317494    1590  315905  315507   397.8    0.00  1796.5 44551.8   67.98 44483.8 44479.1    4.70
 1981 018   383       0   12940  317490    1584  315906  315508   398.6    0.00  1796.5 44551.4   67.83 44483.5 44478.8    4.72
 1981 019   384       0   12941  317486    1578  315908  315508   399.3    0.00  1796.5 44551.0   67.73 44483.3 44478.5    4.73
 1981 020   385       0   12941  317479    1570  315909  315509   399.6    0.00  1796.6 44550.5   67.55 44483.0 44478.3    4.74
 1981 021   386       0   12942  317474    1563  315911  315511   400.3    0.00  1796.6 44550.2   67.39 44482.8 44478.0    4.75
 1981 022   387       0   12943  317464    1552  315912  315512   399.8    0.00  1796.6 44549.6   67.10 44482.5 44477.8    4.74
 1981 023   388       0   12944  317457    1543  315913  315514   399.5    0.00  1796.6 44549.2   66.84 44482.3 44477.6    4.74
 1981 024   389       0   12945  317456    1541  315915  315515   400.4    0.00  1796.6 44548.9   66.77 44482.1 44477.4    4.75
 1981 025   390       0   12945  317460    1542  315918  315516   402.2    0.00  1796.6 44548.7   66.83 44481.9 44477.1    4.78
 1981 026   391       0   12946  317465    1544  315921  315517   404.0    0.00  1796.6 44548.6   66.89 44481.7 44476.9    4.81
 1981 027   392       0   12947  317470    1547  315924  315518   405.8    0.00  1796.7 44548.5   66.98 44481.6 44476.7    4.84
 1981 028   393       0   12947  317479    1552  315927  315519   408.2    0.00  1796.7 44548.5   67.12 44481.4 44476.5    4.88
 1981 029   394       0   12948  317489    1559  315930  315519   410.8    0.00  1796.7 44548.5   67.32 44481.2 44476.3    4.92
 1981 030   395       0   12949  317490    1557  315933  315520   412.6    0.00  1796.7 44548.4   67.38 44481.0 44476.1    4.94
 1981 031   396       0   12950  317487    1550  315936  315523   413.5    0.00  1796.7 44548.1   67.18 44480.9 44475.9    4.94
 1981 032   397       0   12951  317488    1548  315940  315525   414.9    0.00  1796.8 44547.8   67.08 44480.8 44475.8    4.96
 1981 033   398       0   12951  317495    1550  315944  315526   417.6    0.00  1796.8 44547.8   67.19 44480.6 44475.6    5.00
 1981 034   399       0   12952  317502    1554  315948  315528   420.1    0.00  1796.8 44547.8   67.25 44480.5 44475.5    5.03
 1981 035   400       0   12953  317506    1554  315952  315530   422.0    0.00  1796.8 44547.7   67.32 44480.4 44475.3    5.06
 1981 036   401       0   12954  317500    1546  315955  315532   422.4    0.00  1796.8 44547.4   67.14 44480.3 44475.2    5.06
 1981 037   402       0   12955  317491    1533  315958  315535   422.5    0.00  1796.9 44546.9   66.76 44480.2 44475.1    5.05
 1981 038   403       0   12956  317487    1526  315961  315537   423.5    0.00  1796.9 44546.6   66.51 44480.1 44475.0    5.06
 1981 039   404       0   12956  317491    1526  315965  315539   426.2    0.00  1796.9 44546.5   66.44 44480.0 44474.9    5.10
 1981 040   405       0   12957  317499    1530  315970  315540   429.5    0.00  1796.9 44546.4   66.49 44479.9 44474.8    5.15
 1981 041   406       0   12957  317503    1530  315973  315541   432.0    0.00  1796.9 44546.4   66.54 44479.8 44474.6    5.19
 1981 042   407       0   12958  317505    1529  315976  315543   433.9    0.00  1796.9 44546.2   66.50 44479.7 44474.5    5.21
 1981 043   408       0   12959  317514    1532  315981  315544   437.3    0.00  1797.0 44546.2   66.56 44479.7 44474.4    5.26
 1981 044   409       0   12959  317522    1536  315986  315545   440.9    0.00  1797.0 44546.2   66.69 44479.6 44474.2    5.31
 1981 045   410       0   12960  317525    1535  315990  315546   443.2    0.00  1797.0 44546.2   66.71 44479.5 44474.1    5.34
 1981 046   411       0   12961  317519    1527  315992  315549   443.4    0.00  1797.0 44545.9   66.53 44479.4 44474.0    5.33
 1981 047   412       0   12962  317522    1525  315997  315551   445.6    0.00  1797.0 44545.8   66.45 44479.3 44473.9    5.36
 1981 048   413       0   12962  317522    1522  316000  315553   446.9    0.00  1797.0 44545.6   66.37 44479.2 44473.8    5.38
 1981 049   414       0   12963  317526    1522  316004  315555   448.9    0.00  1797.1 44545.5   66.39 44479.1 44473.7    5.40
 1981 050   415       0   12964  317528    1520  316008  315557   451.1    0.00  1797.1 44545.4   66.38 44479.0 44473.6    5.43
 1981 051   416       0   12965  317527    1515  316012  315560   451.9    0.00  1797.1 44545.2   66.24 44479.0 44473.5    5.43
 1981 052   417       0   12966  317525    1509  316016  315563   453.1    0.00  1797.1 44545.0   66.14 44478.9 44473.4    5.44
 1981 053   418       0   12967  317525    1504  316021  315566   454.6    0.00  1797.2 44544.8   65.98 44478.8 44473.4    5.46
 1981 054   419       0   12968  317529    1503  316026  315569   456.7    0.00  1797.2 44544.7   65.87 44478.8 44473.3    5.48
 1981 055   420       0   12969  317535    1504  316031  315572   459.1    0.00  1797.2 44544.6   65.85 44478.7 44473.2    5.52
 1981 056   421       0   12970  317545    1510  316035  315574   461.9    0.00  1797.2 44544.6   65.94 44478.7 44473.1    5.56
 1981 057   422       0   12970  317558    1518  316040  315575   465.1    0.00  1797.2 44544.7   66.10 44478.6 44473.0    5.61
 1981 058   423       0   12971  317572    1527  316044  315576   468.6    0.00  1797.3 44544.8   66.31 44478.5 44472.8    5.66
 1981 059   424       0   12971  317575    1527  316048  315576   471.9    0.00  1797.3 44545.0   66.61 44478.3 44472.7    5.69
 1981 060   425       0   12972  317575    1520  316055  315581   474.1    0.00  1797.3 44544.8   66.36 44478.4 44472.7    5.70
 1981 061   426       0   12973  317570    1511  316059  315584   475.1    0.00  1797.3 44544.6   66.19 44478.4 44472.7    5.70
 1981 062   427       0   12975  317568    1502  316065  315589   476.8    0.00  1797.4 44544.4   65.94 44478.4 44472.7    5.72
 1981 063   428       0   12976  317567    1496  316070  315593   477.8    0.00  1797.4 44544.1   65.68 44478.4 44472.7    5.72
 1981 064   429       0   12977  317563    1490  316074  315596   478.2    0.00  1797.4 44544.0   65.55 44478.5 44472.7    5.72
 1981 065   430       0   12978  317560    1481  316078  315599   479.6    0.00  1797.5 44543.9   65.35 44478.5 44472.8    5.73
 1981 066   431       0   12979  317560    1476  316084  315602   481.7    0.00  1797.5 44543.7   65.15 44478.6 44472.8    5.76
 1981 067   432       0   12980  317561    1472  316089  315605   483.3    0.00  1797.6 44543.6   65.00 44478.6 44472.9    5.77
 1981 068   433       0   12981  317562    1470  316093  315608   484.7    0.00  1797.6 44543.6   64.91 44478.6 44472.9    5.79
 1981 069   434       0   12981  317567    1471  316096  315610   486.4    0.00  1797.6 44543.5   64.90 44478.6 44472.8    5.81
 1981 070   435       0   12982  317575    1475  316100  315611   488.7    0.00  1797.6 44543.6   65.00 44478.6 44472.8    5.85
 1981 071   436       0   12982  317586    1482  316104  315612   491.5    0.00  1797.7 44543.8   65.19 44478.6 44472.7    5.89
 1981 072   437       0   12982  317597    1490  316107  315613   494.2    0.00  1797.7 44544.0   65.43 44478.6 44472.6    5.93
 1981 073   438       0   12983  317606    1496  316110  315613   496.9    0.00  1797.7 44544.2   65.69 44478.5 44472.5    5.96
 1981 074   439       0   12983  317613    1498  316115  315615   499.9    0.00  1797.7 44544.4   65.88 44478.5 44472.5    6.00
 1981 075   440       0   12984  317613    1493  316120  315618   501.7    0.00  1797.7 44544.5   65.88 44478.6 44472.6    6.01
 1981 076   441       0   12985  317609    1485  316124  315622   502.2    0.00  1797.8 44544.3   65.68 44478.7 44472.7    6.01
 1981 077   442       0   12986  317605    1478  316127  315625   502.3    0.00  1797.8 44544.2   65.45 44478.7 44472.7    6.00
 1981 078   443       0   12987  317609    1478  316131  315628   503.6    0.00  1797.9 44544.2   65.43 44478.8 44472.8    6.02
 1981 079   444       0   12987  317617    1482  316135  315629   505.6    0.00  1797.9 44544.4   65.57 44478.8 44472.7    6.05
 1981 080   445       0   12988  317623    1485  316137  315631   506.7    0.00  1797.9 44544.4   65.66 44478.8 44472.7    6.06
 1981 081   446       0   12988  317628    1489  316139  315631   507.6    0.00  1797.9 44544.5   65.77 44478.8 44472.7    6.07
 1981 082   447       0   12989  317638    1496  316142  315632   509.6    0.00  1797.9 44544.8   66.03 44478.7 44472.6    6.10
 1981 083   448       0   12989  317655    1510  316146  315633   513.0    0.00  1798.0 44545.2   66.46 44478.7 44472.6    6.15
 1981 084   449       0   12989  317672    1523  316149  315633   516.0    0.00  1798.0 44545.6   66.87 44478.7 44472.5    6.20
 1981 085   450       0   12989  317686    1534  316152  315633   518.4    0.00  1798.0 44545.9   67.21 44478.7 44472.5    6.24
 1981 086   451       0   12989  317706    1550  316155  315633   522.1    0.00  1798.0 44546.4   67.69 44478.7 44472.4    6.30
 1981 087   452       0   12989  317727    1568  316159  315633   526.2    0.00  1798.0 44546.9   68.21 44478.7 44472.3    6.36
 1981 088   453       0   12989  317752    1588  316164  315633   531.2    0.00  1798.0 44547.5   68.81 44478.7 44472.2    6.44
 1981 089   454       0   12989  317774    1606  316168  315633   535.6    0.00  1798.0 44548.0   69.33 44478.7 44472.1    6.51
 1981 090   455       0   12989  317783    1611  316172  315632   539.2    0.00  1798.0 44548.5   69.87 44478.6 44472.1    6.54
 1981 091   456       0   12990  317787    1609  316178  315636   541.8    0.00  1798.0 44548.6   69.86 44478.8 44472.2    6.57
 1981 092   457       0   12991  317788    1605  316183  315639   544.1    0.00  1798.1 44548.8   69.90 44478.9 44472.3    6.58
 1981 093   458       0   12992  317786    1597  316190  315643   546.2    0.00  1798.1 44548.8   69.66 44479.1 44472.5    6.60
 1981 094   459       0   12993  317786    1590  316196  315647   548.8    0.00  1798.2 44548.9   69.58 44479.3 44472.6    6.62
 1981 095   460       0   12994  317784    1583  316201  315651   550.9    0.00  1798.2 44548.8   69.39 44479.4 44472.8    6.64
 1981 096   461       0   12995  317787    1579  316207  315654   553.3    0.00  1798.3 44548.9   69.30 44479.6 44472.9    6.67
 1981 097   462       0   12996  317793    1580  316213  315657   556.2    0.00  1798.3 44549.1   69.32 44479.8 44473.1    6.71
 1981 098   463       0   12997  317806    1587  316219  315659   560.2    0.00  1798.4 44549.4   69.53 44479.9 44473.1    6.76
 1981 099   464       0   12997  317821    1596  316225  315660   564.2    0.00  1798.4 44549.8   69.82 44480.0 44473.2    6.82
 1981 100   465       0   12997  317835    1605  316230  315662   567.9    0.00  1798.4 44550.2   70.12 44480.1 44473.2    6.88
 1981 101   466       0   12998  317849    1615  316234  315663   571.4    0.00  1798.4 44550.6   70.43 44480.1 44473.2    6.93
 1981 102   467       0   12998  317855    1617  316239  315664   574.8    0.00  1798.5 44551.0   70.84 44480.2 44473.2    6.96
 1981 103   468       0   12999  317861    1615  316246  315668   577.7    0.00  1798.5 44551.3   70.82 44480.4 44473.5    6.99
 1981 104   469       0   13000  317861    1610  316251  315672   579.5    0.00  1798.6 44551.4   70.81 44480.6 44473.6    7.00
 1981 105   470       0   13001  317860    1604  316256  315676   580.9    0.00  1798.7 44551.6   70.70 44480.9 44473.8    7.01
 1981 106   471       0   13002  317859    1598  316261  315679   581.9    0.00  1798.7 44551.6   70.56 44481.0 44474.0    7.02
 1981 107   472       0   13003  317859    1593  316265  315683   582.7    0.00  1798.8 44551.6   70.45 44481.2 44474.2    7.02
 1981 108   473       0   13004  317862    1593  316269  315685   584.0    0.00  1798.8 44551.8   70.46 44481.3 44474.3    7.04
 1981 109   474       0   13004  317870    1596  316273  315688   585.7    0.00  1798.9 44552.0   70.58 44481.4 44474.4    7.06
 1981 110   475       0   13005  317881    1604  316277  315689   588.1    0.00  1798.9 44552.4   70.85 44481.5 44474.4    7.09
 1981 111   476       0   13005  317894    1612  316281  315691   590.5    0.00  1798.9 44552.8   71.15 44481.6 44474.5    7.13
 1981 112   477       0   13006  317908    1623  316285  315692   593.3    0.00  1799.0 44553.2   71.53 44481.7 44474.5    7.17
 1981 113   478       0   13006  317917    1628  316289  315693   596.0    0.00  1799.0 44553.7   71.98 44481.7 44474.5    7.20
 1981 114   479       0   13007  317919    1625  316294  315697   596.8    0.00  1799.1 44553.9   71.96 44481.9 44474.7    7.21
 1981 115   480       0   13008  317914    1617  316296  315700   595.7    0.00  1799.1 44553.9   71.82 44482.1 44474.9    7.18
 1981 116   481       0   13009  317911    1611  316299  315704   595.2    0.00  1799.2 44554.0   71.72 44482.2 44475.1    7.16
 1981 117   482       0   13010  317915    1612  316303  315708   594.8    0.00  1799.2 44554.2   71.75 44482.4 44475.2    7.16
 1981 118   483       0   13010  317918    1614  316304  315711   593.7    0.00  1799.3 44554.3   71.85 44482.5 44475.4    7.14
 1981 119   484       0   13011  317917    1613  316305  315713   591.5    0.00  1799.3 44554.5   71.89 44482.6 44475.5    7.11
 1981 120   485       0   13012  317913    1609  316305  315716   588.8    0.00  1799.3 44554.5   71.83 44482.6 44475.6    7.07
 1981 121   486       0   13012  317910    1605  316305  315719   586.1    0.00  1799.4 44554.5   71.78 44482.7 44475.7    7.03
 1981 122   487       0   13013  317907    1601  316306  315722   583.8    0.00  1799.4 44554.5   71.75 44482.8 44475.8    6.99
 1981 123   488       0   13014  317908    1601  316307  315725   582.0    0.00  1799.4 44554.6   71.80 44482.9 44475.9    6.97
 1981 124   489       0   13014  317914    1605  316309  315728   581.1    0.00  1799.5 44555.0   72.02 44482.9 44476.0    6.95
 1981 125   490       0   13015  317923    1611  316311  315731   580.5    0.00  1799.5 44555.4   72.32 44483.0 44476.1    6.95
 1981 126   491       0   13016  317938    1624  316315  315734   580.9    0.00  1799.5 44556.0   72.84 44483.1 44476.2    6.96
 1981 127   492       0   13017  317949    1632  316317  315737   580.2    0.00  1799.6 44556.4   73.15 44483.2 44476.3    6.96
 1981 128   493       0   13017  317962    1643  316320  315740   579.4    0.00  1799.6 44557.0   73.64 44483.3 44476.4    6.95
 1981 129   494       0   13018  317972    1650  316322  315744   577.6    0.00  1799.6 44557.4   74.04 44483.4 44476.5    6.93
 1981 130   495       0   13019  317978    1654  316323  315748   575.1    0.00  1799.6 44557.8   74.29 44483.5 44476.6    6.89
 1981 131   496       0   13020  317983    1657  316326  315753   572.6    0.00  1799.7 44558.0   74.46 44483.6 44476.7    6.86
 1981 132   497       0   13022  317993    1665  316328  315757   571.1    0.00  1799.7 44558.4   74.72 44483.7 44476.8    6.85
 1981 133   498       0   13022  318006    1675  316330  315761   569.8    0.00  1799.8 44558.8   75.13 44483.7 44476.9    6.83
 1981 134   499       0   13023  318016    1684  316332  315764   568.2    0.00  1799.8 44559.2   75.49 44483.7 44476.9    6.82
 1981 135   500       0   13024  318018    1686  316332  315767   565.3    0.00  1799.8 44559.3   75.59 44483.8 44477.0    6.78
 1981 136   501       0   13025  318013    1682  316331  315770   561.3    0.00  1799.8 44559.2   75.49 44483.7 44477.0    6.72
 1981 137   502       0   13025  318010    1680  316330  315773   557.6    0.00  1799.8 44559.2   75.52 44483.7 44477.0    6.67
 1981 138   503       0   13026  318013    1683  316330  315776   554.4    0.00  1799.9 44559.3   75.72 44483.6 44477.0    6.62
 1981 139   504       0   13027  318021    1690  316331  315779   551.9    0.00  1799.9 44559.6   75.99 44483.6 44477.0    6.60
 1981 140   505       0   13028  318030    1700  316331  315781   549.5    0.00  1799.9 44559.9   76.35 44483.5 44476.9    6.57
 1981 141   506       0   13029  318024    1695  316329  315784   545.1    0.00  1799.9 44559.6   76.22 44483.4 44476.9    6.51
 1981 142   507       0   13029  318018    1692  316326  315786   540.3    0.00  1799.9 44559.4   76.19 44483.2 44476.8    6.44
 1981 143   508       0   13030  318020    1695  316325  315788   536.8    0.00  1800.0 44559.5   76.40 44483.1 44476.7    6.39
 1981 144   509       0   13031  318027    1703  316324  315790   534.0    0.00  1800.0 44559.6   76.74 44482.9 44476.5    6.36
 1981 145   510       0   13032  318034    1710  316324  315793   531.1    0.00  1800.0 44559.8   77.00 44482.8 44476.4    6.33
 1981 146   511       0   13032  318037    1715  316322  315795   527.6    0.00  1800.0 44559.8   77.18 44482.6 44476.3    6.29
 1981 147   512       0   13033  318030    1711  316319  315796   522.7    0.00  1800.0 44559.5   77.13 44482.3 44476.1    6.22
 1981 148   513       0   13034  318019    1704  316316  315798   517.7    0.00  1800.1 44559.1   76.95 44482.1 44476.0    6.14
 1981 149   514       0   13035  318010    1696  316314  315800   513.9    0.00  1800.1 44558.7   76.72 44481.9 44475.8    6.09
 1981 150   515       0   13035  318004    1691  316313  315802   511.1    0.00  1800.1 44558.3   76.58 44481.8 44475.7    6.06
 1981 151   516       0   13036  317999    1687  316312  315804   508.3    0.00  1800.1 44558.0   76.47 44481.6 44475.6    6.02
 1981 152   517       0   13037  317994    1683  316311  315805   505.6    0.00  1800.2 44557.8   76.37 44481.4 44475.4    5.99
 1981 153   518       0   13038  317992    1682  316310  315807   503.2    0.00  1800.2 44557.5   76.32 44481.2 44475.2    5.96
 1981 154   519       0   13038  317984    1676  316308  315808   499.8    0.00  1800.2 44557.1   76.14 44481.0 44475.1    5.92
 1981 155   520       0   13039  317973    1667  316305  315809   495.9    0.00  1800.2 44556.6   75.86 44480.8 44474.9    5.86
 1981 156   521       0   13039  317960    1659  316302  315810   491.6    0.00  1800.2 44556.1   75.62 44480.5 44474.7    5.80
 1981 157   522       0   13040  317950    1651  316299  315811   487.8    0.00  1800.2 44555.6   75.39 44480.2 44474.5    5.74
 1981 158   523       0   13041  317943    1647  316297  315812   485.0    0.00  1800.3 44555.2   75.25 44480.0 44474.3    5.70
 1981 159   524       0   13041  317933    1639  316294  315812   481.4    0.00  1800.3 44554.8   75.00 44479.8 44474.1    5.65
 1981 160   525       0   13042  317923    1632  316291  315813   478.0    0.00  1800.3 44554.3   74.77 44479.5 44473.9    5.60
 1981 161   526       0   13042  317915    1627  316289  315813   475.1    0.00  1800.3 44553.9   74.63 44479.3 44473.7    5.56
 1981 162   527       0   13043  317906    1620  316286  315814   472.0    0.00  1800.3 44553.5   74.43 44479.0 44473.5    5.52
 1981 163   528       0   13043  317897    1613  316283  315814   468.9    0.00  1800.3 44553.0   74.21 44478.8 44473.3    5.48
 1981 164   529       0   13044  317888    1607  316281  315815   465.8    0.00  1800.3 44552.5   74.01 44478.5 44473.1    5.43
 1981 165   530       0   13044  317878    1600  316278  315815   462.6    0.00  1800.4 44552.1   73.78 44478.3 44472.9    5.39
 1981 166   531       0   13045  317868    1593  316275  315816   459.5    0.00  1800.4 44551.6   73.54 44478.0 44472.7    5.34
 1981 167   532       0   13045  317864    1591  316273  315816   457.7    0.00  1800.4 44551.3   73.49 44477.8 44472.5    5.32
 1981 168   533       0   13046  317854    1584  316271  315816   454.7    0.00  1800.4 44550.8   73.26 44477.6 44472.3    5.28
 1981 169   534       0   13046  317844    1576  316268  315816   451.7    0.00  1800.4 44550.4   73.02 44477.3 44472.1    5.24
 1981 170   535       0   13046  317836    1570  316266  315816   449.2    0.00  1800.4 44549.9   72.82 44477.1 44471.9    5.20
 1981 171   536       0   13047  317829    1565  316263  315816   446.9    0.00  1800.4 44549.5   72.68 44476.9 44471.7    5.17
 1981 172   537       0   13047  317821    1560  316261  315817   444.5    0.00  1800.4 44549.1   72.48 44476.6 44471.5    5.14
 1981 173   538       0   13048  317817    1558  316260  315817   442.9    0.00  1800.5 44548.8   72.42 44476.4 44471.3    5.12
 1981 174   539       0   13048  317809    1552  316257  315817   440.5    0.00  1800.5 44548.4   72.24 44476.2 44471.1    5.09
 1981 175   540       0   13049  317805    1550  316255  315817   438.6    0.00  1800.5 44548.0   72.11 44475.9 44470.9    5.06
 1981 176   541       0   13049  317800    1547  316253  315816   436.7    0.00  1800.5 44547.7   72.05 44475.6 44470.6    5.04
 1981 177   542       0   13049  317797    1546  316251  315816   435.0    0.00  1800.5 44547.4   72.00 44475.4 44470.4    5.02
 1981 178   543       0   13050  317805    1554  316251  315816   435.6    0.00  1800.5 44547.4   72.24 44475.2 44470.1    5.04
 1981 179   544       0   13050  317811    1560  316251  315815   435.6    0.00  1800.5 44547.4   72.43 44474.9 44469.9    5.05
 1981 180   545       0   13051  317813    1563  316250  315815   435.0    0.00  1800.5 44547.2   72.53 44474.7 44469.6    5.05
 1981 181   546       0   13051  317815    1566  316249  315815   434.2    0.00  1800.5 44547.0   72.64 44474.4 44469.3    5.05
 1981 182   547       0   13052  317816    1568  316248  315815   433.3    0.00  1800.6 44546.8   72.70 44474.1 44469.0    5.04
 1981 183   548       0   13052  317804    1559  316245  315815   430.2    0.00  1800.6 44546.2   72.40 44473.8 44468.8    4.99
 1981 184   549       0   13053  317792    1549  316243  315816   427.2    0.00  1800.6 44545.6   72.07 44473.5 44468.6    4.95
 1981 185   550       0   13053  317784    1543  316241  315816   425.0    0.00  1800.6 44545.1   71.86 44473.3 44468.4    4.92
 1981 186   551       0   13054  317776    1537  316239  315816   422.9    0.00  1800.6 44544.7   71.67 44473.0 44468.1    4.89
 1981 187   552       0   13055  317770    1532  316237  315816   421.0    0.00  1800.6 44544.3   71.50 44472.8 44467.9    4.87
 1981 188   553       0   13055  317766    1530  316236  315816   419.5    0.00  1800.7 44544.0   71.42 44472.5 44467.7    4.85
 1981 189   554       0   13055  317761    1527  316234  315816   418.0    0.00  1800.7 44543.6   71.34 44472.3 44467.4    4.83
 1981 190   555       0   13056  317758    1526  316233  315816   416.6    0.00  1800.7 44543.3   71.29 44472.0 44467.2    4.81
 1981 191   556       0   13057  317755    1524  316231  315816   415.2    0.00  1800.7 44543.0   71.24 44471.7 44466.9    4.80
 1981 192   557       0   13057  317754    1524  316230  315816   414.0    0.00  1800.7 44542.7   71.23 44471.4 44466.6    4.79
 1981 193   558       0   13058  317750    1522  316228  315816   412.5    0.00  1800.7 44542.3   71.16 44471.1 44466.4    4.77
 1981 194   559       0   13058  317755    1527  316228  315816   412.3    0.00  1800.7 44542.2   71.31 44470.9 44466.1    4.78
 1981 195   560       0   13059  317758    1531  316227  315815   411.7    0.00  1800.7 44542.0   71.42 44470.6 44465.8    4.78
 1981 196   561       0   13059  317770    1542  316227  315815   412.3    0.00  1800.8 44542.0   71.78 44470.3 44465.5    4.80
 1981 197   562       0   13060  317780    1553  316227  315814   412.9    0.00  1800.8 44542.1   72.12 44470.0 44465.1    4.82
 1981 198   563       0   13060  317780    1554  316226  315814   411.9    0.00  1800.8 44541.8   72.16 44469.7 44464.8    4.82
 1981 199   564       0   13061  317769    1546  316223  315814   409.3    0.00  1800.8 44541.2   71.86 44469.4 44464.6    4.78
 1981 200   565       0   13061  317761    1540  316221  315814   407.3    0.00  1800.8 44540.8   71.67 44469.1 44464.4    4.75
 1981 201   566       0   13062  317752    1533  316219  315814   405.1    0.00  1800.8 44540.3   71.41 44468.9 44464.2    4.72
 1981 202   567       0   13062  317746    1528  316218  315814   403.6    0.00  1800.8 44539.9   71.26 44468.7 44464.0    4.70
 1981 203   568       0   13063  317740    1524  316216  315814   402.1    0.00  1800.8 44539.6   71.12 44468.5 44463.8    4.68
 1981 204   569       0   13063  317733    1519  316214  315814   400.4    0.00  1800.9 44539.2   70.96 44468.2 44463.6    4.65
 1981 205   570       0   13063  317725    1512  316212  315814   398.6    0.00  1800.9 44538.7   70.75 44468.0 44463.4    4.63
 1981 206   571       0   13064  317717    1507  316210  315813   396.9    0.00  1800.9 44538.3   70.56 44467.8 44463.2    4.60
 1981 207   572       0   13064  317711    1502  316209  315813   395.4    0.00  1800.9 44537.9   70.40 44467.5 44462.9    4.58
 1981 208   573       0   13064  317705    1498  316207  315813   394.2    0.00  1800.9 44537.6   70.27 44467.3 44462.7    4.57
 1981 209   574       0   13065  317702    1496  316206  315812   393.3    0.00  1800.9 44537.2   70.18 44467.1 44462.5    4.56
 1981 210   575       0   13065  317697    1493  316204  315812   392.3    0.00  1800.9 44536.9   70.08 44466.8 44462.3    4.55
 1981 211   576       0   13066  317700    1496  316204  315811   392.7    0.00  1800.9 44536.7   70.16 44466.5 44462.0    4.56
 1981 212   577       0   13066  317701    1497  316203  315811   392.4    0.00  1800.9 44536.4   70.16 44466.3 44461.7    4.57
 1981 213   578       0   13067  317702    1500  316203  315810   392.2    0.00  1800.9 44536.2   70.21 44466.0 44461.4    4.57
 1981 214   579       0   13067  317704    1503  316202  315809   392.1    0.00  1800.9 44535.9   70.30 44465.6 44461.1    4.58
 1981 215   580       0   13067  317707    1506  316201  315809   392.2    0.00  1801.0 44535.7   70.41 44465.3 44460.7    4.59
 1981 216   581       0   13068  317713    1511  316201  315808   393.0    0.00  1801.0 44535.5   70.57 44465.0 44460.3    4.61
 1981 217   582       0   13069  317717    1515  316202  315808   393.3    0.00  1801.0 44535.3   70.70 44464.6 44460.0    4.63
 1981 218   583       0   13070  317721    1519  316202  315808   393.7    0.00  1801.0 44535.1   70.83 44464.2 44459.6    4.64
 1981 219   584       0   13070  317720    1518  316201  315809   392.8    0.00  1801.0 44534.6   70.78 44463.8 44459.2    4.64
 1981 220   585       0   13071  317719    1518  316201  315809   391.8    0.00  1801.1 44534.1   70.65 44463.5 44458.9    4.63
 1981 221   586       0   13072  317712    1514  316199  315809   389.7    0.00  1801.1 44533.6   70.49 44463.1 44458.5    4.61
 1981 222   587       0   13073  317698    1503  316195  315809   386.4    0.00  1801.1 44532.8   70.14 44462.7 44458.1    4.56
 1981 223   588       0   13073  317688    1495  316193  315809   384.3    0.00  1801.1 44532.3   69.89 44462.4 44457.8    4.53
 1981 224   589       0   13074  317682    1490  316191  315809   382.8    0.00  1801.1 44531.8   69.71 44462.1 44457.6    4.51
 1981 225   590       0   13075  317674    1485  316190  315809   381.2    0.00  1801.1 44531.3   69.51 44461.8 44457.3    4.49
 1981 226   591       0   13075  317669    1480  316188  315809   379.8    0.00  1801.2 44530.9   69.35 44461.5 44457.1    4.47
 1981 227   592       0   13076  317662    1476  316187  315808   378.3    0.00  1801.2 44530.4   69.19 44461.2 44456.8    4.45
 1981 228   593       0   13076  317660    1474  316186  315808   377.5    0.00  1801.2 44530.1   69.13 44461.0 44456.5    4.44
 1981 229   594       0   13077  317661    1476  316185  315808   377.3    0.00  1801.2 44529.9   69.20 44460.7 44456.2    4.45
 1981 230   595       0   13077  317663    1479  316184  315807   377.1    0.00  1801.2 44529.7   69.27 44460.4 44455.9    4.45
 1981 231   596       0   13078  317661    1478  316183  315807   376.1    0.00  1801.2 44529.3   69.24 44460.1 44455.6    4.44
 1981 232   597       0   13078  317655    1474  316181  315806   374.4    0.00  1801.2 44528.8   69.10 44459.7 44455.3    4.42
 1981 233   598       0   13078  317650    1471  316179  315806   373.0    0.00  1801.2 44528.4   68.99 44459.4 44455.0    4.40
 1981 234   599       0   13079  317649    1472  316177  315805   372.3    0.00  1801.2 44528.1   68.99 44459.1 44454.7    4.40
 1981 235   600       0   13079  317650    1473  316176  315805   371.7    0.00  1801.2 44527.8   69.03 44458.8 44454.4    4.40
 1981 236   601       0   13080  317653    1477  316175  315804   371.5    0.00  1801.2 44527.6   69.15 44458.5 44454.1    4.40
 1981 237   602       0   13080  317657    1483  316175  315803   371.5    0.00  1801.2 44527.5   69.33 44458.1 44453.7    4.41
 1981 238   603       0   13080  317656    1483  316173  315802   370.8    0.00  1801.2 44527.2   69.41 44457.8 44453.4    4.40
 1981 239   604       0   13081  317656    1483  316173  315802   370.2    0.00  1801.3 44526.9   69.35 44457.5 44453.1    4.40
 1981 240   605       0   13081  317653    1482  316171  315802   369.1    0.00  1801.3 44526.5   69.31 44457.2 44452.8    4.39
 1981 241   606       0   13082  317649    1479  316169  315802   367.8    0.00  1801.3 44526.1   69.24 44456.9 44452.5    4.37
 1981 242   607       0   13082  317651    1482  316169  315801   367.7    0.00  1801.3 44526.0   69.34 44456.6 44452.2    4.38
 1981 243   608       0   13083  317650    1481  316168  315801   367.0    0.00  1801.3 44525.7   69.31 44456.4 44452.0    4.37
 1981 244   609       0   13083  317643    1476  316167  315802   365.4    0.00  1801.3 44525.2   69.13 44456.1 44451.7    4.35
 1981 245   610       0   13084  317636    1470  316166  315802   363.9    0.00  1801.3 44524.7   68.92 44455.8 44451.5    4.32
 1981 246   611       0   13084  317631    1467  316164  315802   362.6    0.00  1801.3 44524.4   68.78 44455.6 44451.3    4.31
 1981 247   612       0   13085  317631    1468  316163  315801   362.2    0.00  1801.3 44524.2   68.82 44455.3 44451.0    4.31
 1981 248   613       0   13085  317630    1467  316162  315801   361.4    0.00  1801.3 44523.9   68.79 44455.1 44450.8    4.30
 1981 249   614       0   13085  317629    1469  316161  315800   360.8    0.00  1801.3 44523.7   68.86 44454.8 44450.5    4.29
 1981 250   615       0   13085  317630    1471  316159  315799   360.3    0.00  1801.3 44523.5   68.96 44454.5 44450.2    4.29
 1981 251   616       0   13086  317638    1479  316159  315799   360.8    0.00  1801.3 44523.5   69.28 44454.2 44449.9    4.31
 1981 252   617       0   13086  317653    1492  316160  315798   362.1    0.00  1801.3 44523.7   69.77 44453.9 44449.6    4.34
 1981 253   618       0   13087  317668    1507  316161  315797   363.5    0.00  1801.3 44523.9   70.29 44453.6 44449.2    4.37
 1981 254   619       0   13087  317667    1508  316160  315797   362.2    0.00  1801.3 44523.5   70.26 44453.2 44448.8    4.36
 1981 255   620       0   13088  317667    1509  316158  315797   361.1    0.00  1801.3 44523.1   70.27 44452.8 44448.5    4.35
[...]
 2016 210 13358       0   11546  278716       0  278716  278716     0.0    0.00  1609.5 39489.7    0.00 39489.7 39489.7    0.00
 2016 211 13359       0   11546  278714       0  278714  278714     0.0    0.00  1609.5 39489.4    0.00 39489.4 39489.4    0.00
 2016 212 13360       0   11545  278713       0  278713  278713     0.0    0.00  1609.5 39489.2    0.00 39489.2 39489.2    0.00
 2016 213 13361       0   11545  278711       0  278711  278711     0.0    0.00  1609.5 39488.9    0.00 39488.9 39488.9    0.00
 2016 214 13362       0   11545  278709       0  278709  278709     0.0    0.00  1609.5 39488.7    0.00 39488.7 39488.7    0.00
 2016 215 13363       0   11545  278706       0  278706  278706     0.0    0.00  1609.5 39488.3    0.00 39488.3 39488.3    0.00
 2016 216 13364       0   11545  278704       0  278704  278704     0.0    0.00  1609.4 39488.0    0.00 39488.0 39488.0    0.00
 2016 217 13365       0   11545  278702       0  278702  278702     0.0    0.00  1609.4 39487.7    0.00 39487.7 39487.7    0.00
 2016 218 13366       0   11545  278700       0  278700  278700     0.0    0.00  1609.4 39487.4    0.00 39487.4 39487.4    0.00
 2016 219 13367       0   11545  278698       0  278698  278698     0.0    0.00  1609.4 39487.2    0.00 39487.2 39487.2    0.00
 2016 220 13368       0   11545  278696       0  278696  278696     0.0    0.00  1609.4 39486.9    0.00 39486.9 39486.9    0.00
 2016 221 13369       0   11544  278694       0  278694  278694     0.0    0.00  1609.4 39486.6    0.00 39486.6 39486.6    0.00
 2016 222 13370       0   11544  278692       0  278692  278692     0.0    0.00  1609.4 39486.3    0.00 39486.3 39486.3    0.00
 2016 223 13371       0   11544  278689       0  278689  278689     0.0    0.00  1609.4 39486.1    0.00 39486.1 39486.1    0.00
 2016 224 13372       0   11544  278687       0  278687  278687     0.0    0.00  1609.3 39485.8    0.00 39485.8 39485.8    0.00
 2016 225 13373       0   11544  278686       0  278686  278686     0.0    0.00  1609.3 39485.5    0.00 39485.5 39485.5    0.00
 2016 226 13374       0   11544  278684       0  278684  278684     0.0    0.00  1609.3 39485.3    0.00 39485.3 39485.3    0.00
 2016 227 13375       0   11544  278681       0  278681  278681     0.0    0.00  1609.3 39485.0    0.00 39485.0 39485.0    0.00
 2016 228 13376       0   11544  278679       0  278679  278679     0.0    0.00  1609.3 39484.7    0.00 39484.7 39484.7    0.00
 2016 229 13377       0   11543  278677       0  278677  278677     0.0    0.00  1609.3 39484.4    0.00 39484.4 39484.4    0.00
 2016 230 13378       0   11543  278675       0  278675  278675     0.0    0.00  1609.3 39484.1    0.00 39484.1 39484.1    0.00
 2016 231 13379       0   11543  278672       0  278672  278672     0.0    0.00  1609.3 39483.7    0.00 39483.7 39483.7    0.00
 2016 232 13380       0   11543  278670       0  278670  278670     0.0    0.00  1609.2 39483.4    0.00 39483.4 39483.4    0.00
 2016 233 13381       0   11543  278667       0  278667  278667     0.0    0.00  1609.2 39483.1    0.00 39483.1 39483.1    0.00
 2016 234 13382       0   11543  278665       0  278665  278665     0.0    0.00  1609.2 39482.7    0.00 39482.7 39482.7    0.00
 2016 235 13383       0   11543  278663       0  278663  278663     0.0    0.00  1609.2 39482.5    0.00 39482.5 39482.5    0.00
 2016 236 13384       0   11542  278661       0  278661  278661     0.0    0.00  1609.2 39482.2    0.00 39482.2 39482.2    0.00
 2016 237 13385       0   11542  278659       0  278659  278659     0.0    0.00  1609.2 39481.9    0.00 39481.9 39481.9    0.00
 2016 238 13386       0   11542  278657       0  278657  278657     0.0    0.00  1609.2 39481.6    0.00 39481.6 39481.6    0.00
 2016 239 13387       0   11542  278654       0  278654  278654     0.0    0.00  1609.2 39481.3    0.00 39481.3 39481.3    0.00
 2016 240 13388       0   11542  278652       0  278652  278652     0.0    0.00  1609.1 39481.0    0.00 39481.0 39481.0    0.00
 2016 241 13389       0   11542  278650       0  278650  278650     0.0    0.00  1609.1 39480.6    0.00 39480.6 39480.6    0.00
 2016 242 13390       0   11542  278647       0  278647  278647     0.0    0.00  1609.1 39480.3    0.00 39480.3 39480.3    0.00
 2016 243 13391       0   11542  278644       0  278644  278644     0.0    0.00  1609.1 39479.9    0.00 39479.9 39479.9    0.00
 2016 244 13392       0   11542  278642       0  278642  278642     0.0    0.00  1609.1 39479.6    0.00 39479.6 39479.6    0.00
 2016 245 13393       0   11541  278640       0  278640  278640     0.0    0.00  1609.1 39479.3    0.00 39479.3 39479.3    0.00
 2016 246 13394       0   11541  278638       0  278638  278638     0.0    0.00  1609.1 39479.1    0.00 39479.1 39479.1    0.00
 2016 247 13395       0   11541  278636       0  278636  278636     0.0    0.00  1609.1 39478.8    0.00 39478.8 39478.8    0.00
 2016 248 13396       0   11541  278634       0  278634  278634     0.0    0.00  1609.0 39478.6    0.00 39478.6 39478.6    0.00
 2016 249 13397       0   11541  278632       0  278632  278632     0.0    0.00  1609.0 39478.3    0.00 39478.3 39478.3    0.00
 2016 250 13398       0   11541  278631       0  278631  278631     0.0    0.00  1609.0 39478.1    0.00 39478.1 39478.1    0.00
 2016 251 13399       0   11541  278629       0  278629  278629     0.0    0.00  1609.0 39477.9    0.00 39477.9 39477.9    0.00
 2016 252 13400       0   11541  278627       0  278627  278627     0.0    0.00  1609.0 39477.7    0.00 39477.7 39477.7    0.00
 2016 253 13401       0   11540  278626       0  278626  278626     0.0    0.00  1609.0 39477.4    0.00 39477.4 39477.4    0.00
 2016 254 13402       0   11540  278624       0  278624  278624     0.0    0.00  1609.0 39477.2    0.00 39477.2 39477.2    0.00
 2016 255 13403       0   11540  278621       0  278621  278621     0.0    0.00  1609.0 39476.9    0.00 39476.9 39476.9    0.00
 2016 256 13404       0   11540  278619       0  278619  278619     0.0    0.00  1609.0 39476.6    0.00 39476.6 39476.6    0.00
 2016 257 13405       0   11540  278617       0  278617  278617     0.0    0.00  1608.9 39476.2    0.00 39476.2 39476.2    0.00
 2016 258 13406       0   11540  278614       0  278614  278614     0.0    0.00  1608.9 39475.9    0.00 39475.9 39475.9    0.00
 2016 259 13407       0   11540  278612       0  278612  278612     0.0    0.00  1608.9 39475.6    0.00 39475.6 39475.6    0.00
 2016 260 13408       0   11540  278610       0  278610  278610     0.0    0.00  1608.9 39475.3    0.00 39475.3 39475.3    0.00
 2016 261 13409       0   11539  278608       0  278608  278608     0.0    0.00  1608.9 39475.0    0.00 39475.0 39475.0    0.00
 2016 262 13410       0   11539  278606       0  278606  278606     0.0    0.00  1608.9 39474.7    0.00 39474.7 39474.7    0.00
 2016 263 13411       0   11539  278604       0  278604  278604     0.0    0.00  1608.9 39474.4    0.00 39474.4 39474.4    0.00
 2016 264 13412       0   11539  278602       0  278602  278602     0.0    0.00  1608.9 39474.1    0.00 39474.1 39474.1    0.00
 2016 265 13413       0   11539  278600       0  278600  278600     0.0    0.00  1608.8 39473.8    0.00 39473.8 39473.8    0.00
 2016 266 13414       0   11539  278598       0  278598  278598     0.0    0.00  1608.8 39473.5    0.00 39473.5 39473.5    0.00
 2016 267 13415       0   11539  278596       0  278596  278596     0.0    0.00  1608.8 39473.2    0.00 39473.2 39473.2    0.00
 2016 268 13416       0   11539  278593       0  278593  278593     0.0    0.00  1608.8 39472.9    0.00 39472.9 39472.9    0.00
 2016 269 13417       0   11539  278591       0  278591  278591     0.0    0.00  1608.8 39472.6    0.00 39472.6 39472.6    0.00
 2016 270 13418       0   11539  278589       0  278589  278589     0.0    0.00  1608.8 39472.3    0.00 39472.3 39472.3    0.00
 2016 271 13419       0   11539  278587       0  278587  278587     0.0    0.00  1608.8 39472.0    0.00 39472.0 39472.0    0.00
 2016 272 13420       0   11539  278585       0  278585  278585     0.0    0.00  1608.8 39471.8    0.00 39471.8 39471.8    0.00
 2016 273 13421       0   11539  278583       0  278583  278583     0.0    0.00  1608.8 39471.5    0.00 39471.5 39471.5    0.00
 2016 274 13422       0   11539  278581       0  278581  278581     0.0    0.00  1608.8 39471.2    0.00 39471.2 39471.2    0.00
 2016 275 13423       0   11538  278579       0  278579  278579     0.0    0.00  1608.8 39470.9    0.00 39470.9 39470.9    0.00
 2016 276 13424       0   11538  278577       0  278577  278577     0.0    0.00  1608.8 39470.6    0.00 39470.6 39470.6    0.00
 2016 277 13425       0   11538  278575       0  278575  278575     0.0    0.00  1608.8 39470.3    0.00 39470.3 39470.3    0.00
 2016 278 13426       0   11538  278573       0  278573  278573     0.0    0.00  1608.7 39470.0    0.00 39470.0 39470.0    0.00
 2016 279 13427       0   11538  278571       0  278571  278571     0.0    0.00  1608.7 39469.7    0.00 39469.7 39469.7    0.00
 2016 280 13428       0   11538  278569       0  278569  278569     0.0    0.00  1608.7 39469.4    0.00 39469.4 39469.4    0.00
 2016 281 13429       0   11538  278567       0  278567  278567     0.0    0.00  1608.7 39469.1    0.00 39469.1 39469.1    0.00
 2016 282 13430       0   11538  278564       0  278564  278564     0.0    0.00  1608.7 39468.7    0.00 39468.7 39468.7    0.00
 2016 283 13431       0   11538  278562       0  278562  278562     0.0    0.00  1608.7 39468.4    0.00 39468.4 39468.4    0.00
 2016 284 13432       0   11538  278560       0  278560  278560     0.0    0.00  1608.7 39468.1    0.00 39468.1 39468.1    0.00
 2016 285 13433       0   11538  278557       0  278557  278557     0.0    0.00  1608.7 39467.8    0.00 39467.8 39467.8    0.00
 2016 286 13434       0   11538  278555       0  278555  278555     0.0    0.00  1608.7 39467.4    0.00 39467.4 39467.4    0.00
 2016 287 13435       0   11538  278552       0  278552  278552     0.0    0.00  1608.7 39467.1    0.00 39467.1 39467.1    0.00
 2016 288 13436       0   11537  278549       0  278549  278549     0.0    0.00  1608.6 39466.7    0.00 39466.7 39466.7    0.00
 2016 289 13437       0   11537  278547       0  278547  278547     0.0    0.00  1608.6 39466.3    0.00 39466.3 39466.3    0.00
 2016 290 13438       0   11537  278544       0  278544  278544     0.0    0.00  1608.6 39465.9    0.00 39465.9 39465.9    0.00
 2016 291 13439       0   11537  278541       0  278541  278541     0.0    0.00  1608.6 39465.5    0.00 39465.5 39465.5    0.00
 2016 292 13440       0   11537  278538       0  278538  278538     0.0    0.00  1608.6 39465.1    0.00 39465.1 39465.1    0.00
 2016 293 13441       0   11537  278535       0  278535  278535     0.0    0.00  1608.6 39464.8    0.00 39464.8 39464.8    0.00
 2016 294 13442       0   11536  278532       0  278532  278532     0.0    0.00  1608.5 39464.4    0.00 39464.4 39464.4    0.00
 2016 295 13443       0   11536  278530       0  278530  278530     0.0    0.00  1608.5 39464.1    0.00 39464.1 39464.1    0.00
 2016 296 13444       0   11536  278527       0  278527  278527     0.0    0.00  1608.5 39463.8    0.00 39463.8 39463.8    0.00
 2016 297 13445       0   11536  278525       0  278525  278525     0.0    0.00  1608.5 39463.5    0.00 39463.5 39463.5    0.00
 2016 298 13446       0   11536  278523       0  278523  278523     0.0    0.00  1608.5 39463.2    0.00 39463.2 39463.2    0.00
 2016 299 13447       0   11536  278521       0  278521  278521     0.0    0.00  1608.5 39462.8    0.00 39462.8 39462.8    0.00
 2016 300 13448       0   11536  278518       0  278518  278518     0.0    0.00  1608.5 39462.5    0.00 39462.5 39462.5    0.00
 2016 301 13449       0   11535  278516       0  278516  278516     0.0    0.00  1608.4 39462.2    0.00 39462.2 39462.2    0.00
 2016 302 13450       0   11535  278513       0  278513  278513     0.0    0.00  1608.4 39461.8    0.00 39461.8 39461.8    0.00
 2016 303 13451       0   11535  278511       0  278511  278511     0.0    0.00  1608.4 39461.5    0.00 39461.5 39461.5    0.00
 2016 304 13452       0   11535  278508       0  278508  278508     0.0    0.00  1608.4 39461.2    0.00 39461.2 39461.2    0.00
 2016 305 13453       0   11535  278506       0  278506  278506     0.0    0.00  1608.4 39460.8    0.00 39460.8 39460.8    0.00
 2016 306 13454       0   11535  278503       0  278503  278503     0.0    0.00  1608.4 39460.5    0.00 39460.5 39460.5    0.00
 2016 307 13455       0   11535  278501       0  278501  278501     0.0    0.00  1608.4 39460.1    0.00 39460.1 39460.1    0.00
 2016 308 13456       0   11534  278498       0  278498  278498     0.0    0.00  1608.3 39459.7    0.00 39459.7 39459.7    0.00
 2016 309 13457       0   11534  278495       0  278495  278495     0.0    0.00  1608.3 39459.3    0.00 39459.3 39459.3    0.00
 2016 310 13458       0   11534  278492       0  278492  278492     0.0    0.00  1608.3 39458.9    0.00 39458.9 39458.9    0.00
 2016 311 13459       0   11534  278489       0  278489  278489     0.0    0.00  1608.3 39458.5    0.00 39458.5 39458.5    0.00
 2016 312 13460       0   11534  278486       0  278486  278486     0.0    0.00  1608.3 39458.1    0.00 39458.1 39458.1    0.00
 2016 313 13461       0   11534  278482       0  278482  278482     0.0    0.00  1608.3 39457.6    0.00 39457.6 39457.6    0.00
 2016 314 13462       0   11533  278479       0  278479  278479     0.0    0.00  1608.2 39457.1    0.00 39457.1 39457.1    0.00
 2016 315 13463       0   11533  278476       0  278476  278476     0.0    0.00  1608.2 39456.6    0.00 39456.6 39456.6    0.00
 2016 316 13464       0   11533  278473       0  278473  278473     0.0    0.00  1608.2 39456.2    0.00 39456.2 39456.2    0.00
 2016 317 13465       0   11533  278470       0  278470  278470     0.0    0.00  1608.2 39455.8    0.00 39455.8 39455.8    0.00
 2016 318 13466       0   11533  278467       0  278467  278467     0.0    0.00  1608.2 39455.4    0.00 39455.4 39455.4    0.00
 2016 319 13467       0   11533  278464       0  278464  278464     0.0    0.00  1608.2 39455.0    0.00 39455.0 39455.0    0.00
 2016 320 13468       0   11533  278461       0  278461  278461     0.0    0.00  1608.1 39454.5    0.00 39454.5 39454.5    0.00
 2016 321 13469       0   11533  278458       0  278458  278458     0.0    0.00  1608.1 39454.1    0.00 39454.1 39454.1    0.00
 2016 322 13470       0   11533  278455       0  278455  278455     0.0    0.00  1608.1 39453.7    0.00 39453.7 39453.7    0.00
 2016 323 13471       0   11532  278452       0  278452  278452     0.0    0.00  1608.1 39453.2    0.00 39453.2 39453.2    0.00
 2016 324 13472       0   11532  278448       0  278448  278448     0.0    0.00  1608.1 39452.8    0.00 39452.8 39452.8    0.00
 2016 325 13473       0   11532  278445       0  278445  278445     0.0    0.00  1608.1 39452.4    0.00 39452.4 39452.4    0.00
 2016 326 13474       0   11532  278443       0  278443  278443     0.0    0.00  1608.1 39452.0    0.00 39452.0 39452.0    0.00
 2016 327 13475       0   11532  278440       0  278440  278440     0.0    0.00  1608.0 39451.7    0.00 39451.7 39451.7    0.00
 2016 328 13476       0   11532  278438       0  278438  278438     0.0    0.00  1608.0 39451.3    0.00 39451.3 39451.3    0.00
 2016 329 13477       0   11532  278435       0  278435  278435     0.0    0.00  1608.0 39451.0    0.00 39451.0 39451.0    0.00
 2016 330 13478       0   11531  278432       0  278432  278432     0.0    0.00  1608.0 39450.6    0.00 39450.6 39450.6    0.00
 2016 331 13479       0   11531  278429       0  278429  278429     0.0    0.00  1608.0 39450.2    0.00 39450.2 39450.2    0.00
 2016 332 13480       0   11531  278426       0  278426  278426     0.0    0.00  1608.0 39449.8    0.00 39449.8 39449.8    0.00
 2016 333 13481       0   11531  278423       0  278423  278423     0.0    0.00  1607.9 39449.4    0.00 39449.4 39449.4    0.00
 2016 334 13482       0   11531  278420       0  278420  278420     0.0    0.00  1607.9 39448.9    0.00 39448.9 39448.9    0.00
 2016 335 13483       0   11531  278416       0  278416  278416     0.0    0.00  1607.9 39448.5    0.00 39448.5 39448.5    0.00
 2016 336 13484       0   11530  278413       0  278413  278413     0.0    0.00  1607.9 39448.1    0.00 39448.1 39448.1    0.00
 2016 337 13485       0   11530  278410       0  278410  278410     0.0    0.00  1607.9 39447.7    0.00 39447.7 39447.7    0.00
 2016 338 13486       0   11530  278407       0  278407  278407     0.0    0.00  1607.9 39447.2    0.00 39447.2 39447.2    0.00
 2016 339 13487       0   11530  278404       0  278404  278404     0.0    0.00  1607.8 39446.8    0.00 39446.8 39446.8    0.00
 2016 340 13488       0   11530  278401       0  278401  278401     0.0    0.00  1607.8 39446.3    0.00 39446.3 39446.3    0.00
 2016 341 13489       0   11530  278397       0  278397  278397     0.0    0.00  1607.8 39445.9    0.00 39445.9 39445.9    0.00
 2016 342 13490       0   11529  278394       0  278394  278394     0.0    0.00  1607.8 39445.4    0.00 39445.4 39445.4    0.00
 2016 343 13491       0   11529  278391       0  278391  278391     0.0    0.00  1607.8 39444.9    0.00 39444.9 39444.9    0.00
 2016 344 13492       0   11529  278387       0  278387  278387     0.0    0.00  1607.7 39444.5    0.00 39444.5 39444.5    0.00
 2016 345 13493       0   11529  278384       0  278384  278384     0.0    0.00  1607.7 39444.0    0.00 39444.0 39444.0    0.00
 2016 346 13494       0   11529  278381       0  278381  278381     0.0    0.00  1607.7 39443.6    0.00 39443.6 39443.6    0.00
 2016 347 13495       0   11529  278377       0  278377  278377     0.0    0.00  1607.7 39443.1    0.00 39443.1 39443.1    0.00
 2016 348 13496       0   11529  278374       0  278374  278374     0.0    0.00  1607.7 39442.6    0.00 39442.6 39442.6    0.00
 2016 349 13497       0   11529  278371       0  278371  278371     0.0    0.00  1607.7 39442.1    0.00 39442.1 39442.1    0.00
 2016 350 13498       0   11529  278367       0  278367  278367     0.0    0.00  1607.7 39441.7    0.00 39441.7 39441.7    0.00
 2016 351 13499       0   11528  278364       0  278364  278364     0.0    0.00  1607.7 39441.2    0.00 39441.2 39441.2    0.00
 2016 352 13500       0   11528  278361       0  278361  278361     0.0    0.00  1607.6 39440.8    0.00 39440.8 39440.8    0.00
 2016 353 13501       0   11528  278358       0  278358  278358     0.0    0.00  1607.6 39440.3    0.00 39440.3 39440.3    0.00
 2016 354 13502       0   11528  278354       0  278354  278354     0.0    0.00  1607.6 39439.9    0.00 39439.9 39439.9    0.00
 2016 355 13503       0   11528  278350       0  278350  278350     0.0    0.00  1607.6 39439.4    0.00 39439.4 39439.4    0.00
 2016 356 13504       0   11528  278346       0  278346  278346     0.0    0.00  1607.6 39438.8    0.00 39438.8 39438.8    0.00
 2016 357 13505       0   11527  278342       0  278342  278342     0.0    0.00  1607.5 39438.3    0.00 39438.3 39438.3    0.00
 2016 358 13506       0   11527  278338       0  278338  278338     0.0    0.00  1607.5 39437.7    0.00 39437.7 39437.7    0.00
 2016 359 13507       0   11527  278334       0  278334  278334     0.0    0.00  1607.5 39437.2    0.00 39437.2 39437.2    0.00
 2016 360 13508       0   11526  278329       0  278329  278329     0.0    0.00  1607.4 39436.6    0.00 39436.6 39436.6    0.00
 2016 361 13509       0   11526  278326       0  278326  278326     0.0    0.00  1607.4 39436.1    0.00 39436.1 39436.1    0.00
 2016 362 13510       0   11526  278321       0  278321  278321     0.0    0.00  1607.4 39435.6    0.00 39435.6 39435.6    0.00
 2016 363 13511       0   11526  278318       0  278318  278318     0.0    0.00  1607.4 39435.1    0.00 39435.1 39435.1    0.00
 2016 364 13512       0   11525  278314       0  278314  278314     0.0    0.00  1607.3 39434.7    0.00 39434.7 39434.7    0.00
 2016 365 13513       0   11525  278311       0  278311  278311     0.0    0.00  1607.3 39434.2    0.00 39434.2 39434.2    0.00
