############################################################################################################################################
# O script apresenta os dados de carbono do experimento SPPI7902.BRX com tratamento 1 e cultura BR. Os valores iniciais incluem SC0Di, 
# SOMCTi, LC0Di, LCTDi e CH4STDi, enquanto os valores finais incluem SC0D, SOMCT, LC0D, LCTD e CH4STD. As adições são representadas por 
# OMAC, SENCC e HRCH, e as perdas são representadas por CO2EC, CH4EC, CH4LCC e CH4COC. O balanço acumulado de carbono é indicado por CUMBAL.
#############################################################################################################################################

*Soil Carbon Balance Summary

*DSSAT Cropping System Model Ver. 4.8.0.027 -release  FEB 01, 2024 15:59:10
!                             <----------------- Initial State Variables ----------------><------------------ Final State Variables -----------------><----------- Added ----------><---------------- Lost ---------------->
!                             <-------- SOM-C -------><-------- FOM-C -------><-----CH4--><-------- SOM-C -------><-------- FOM-C -------><-----CH4--><---OM---><Senesced><-HarvRes><----------------- GHG ----------------><--Balance->
!                                     Surf        Soil        Surf        Soil     Storage        Surf        Soil        Surf        Soil     Storage 
@Run FILEX               TN CR       SC0Di      SOMCTi       LC0Di       LCTDi     CH4STDi        SC0D       SOMCT        LC0D        LCTD      CH4STD      OMAC     SENCC      HRCH     CO2EC     CH4EC    CH4LCC    CH4COC      CUMBAL
   1 SPPI7902.BRX         1 BR        0.00   315929.44        0.00     4000.00        0.00        0.00   278310.72        0.00        0.00        0.00      0.00  78138.79      0.00 119762.91      0.00      0.00      0.00     -5.0340
