###############################################################################################################################################################################################
# Este arquivo de saída do módulo meteorológico do DSSAT fornece informações detalhadas sobre as variáveis climáticas diárias durante a execução da simulação para o 
# experimento SPPI7902BR. As variáveis incluem precipitação (PRED), duração do dia (DAYLD), temperaturas (TWLD, TMXD, TMND, TAVD, TDYD, TDWD, TGAD, TGRD), radiação solar (SRAD), 
# radiação fotossinteticamente ativa (PARD), graus-dia de resfriamento (CLDD), velocidade do vento (WDSD), concentração de CO2 (CO2D), pressão de vapor (VPDF), défice de pressão 
# de vapor (VPD), e concentração de ozônio (OZON7). Estes dados são cruciais para entender as condições climáticas que afetam o crescimento das plantas e o desenvolvimento do experimento 
# simulado.
###############################################################################################################################################################################################


*WEATHER MODULE DAILY OUTPUT FILE

*DSSAT Cropping System Model Ver. 4.8.0.027 -release  FEB 01, 2024 15:59:10

*RUN   1        : MARANDU11299              PRFRM048 SPPI7902    1
 MODEL          : PRFRM048 - Brachiaria
 EXPERIMENT     : SPPI7902 BR
 DATA PATH      : C:/DSSAT48/Brachiaria/
 TREATMENT  1   : MARANDU11299              PRFRM048
  
@YEAR DOY   DAS   PRED  DAYLD   TWLD   SRAD   PARD   CLDD   TMXD   TMND   TAVD   TDYD   TDWD   TGAD   TGRD   WDSD   CO2D   VPDF    VPD  OZON7   WDATE
 1980 002     1    0.0   14.2   15.3   30.0   60.0   0.09   27.5   13.2   20.5   22.6   11.7   20.5   22.6    1.0  337.7   0.00   0.00 -99.00 1980002
 1980 003     2    0.0   14.2   15.3   30.3   60.6   0.08   30.6   15.2   23.1   25.3   12.9   23.1   25.3    1.1  337.7   0.00   0.00 -99.00 1980003
 1980 004     3    0.0   14.2   15.3   29.2   58.4   0.11   31.0   18.8   25.0   26.8   15.5   25.0   26.8    2.5  337.7   0.00   0.00 -99.00 1980004
 1980 005     4    0.0   14.2   15.3   26.4   52.8   0.20   29.7   18.7   24.3   25.9   17.3   24.3   25.9    4.1  337.7   0.00   0.00 -99.00 1980005
 1980 006     5   17.8   14.1   15.3   18.3   36.6   0.44   31.5   20.8   26.3   27.8   20.8   26.3   27.8    1.4  337.7   0.00   0.00 -99.00 1980006
 1980 007     6    1.2   14.1   15.2   27.1   54.2   0.17   32.8   20.6   26.8   28.6   19.4   26.8   28.6    2.1  337.7   0.00   0.00 -99.00 1980007
 1980 008     7    0.4   14.1   15.2   17.2   34.4   0.47   31.4   21.4   26.5   28.0   21.5   26.5   28.0    1.8  337.7   0.00   0.00 -99.00 1980008
 1980 009     8    0.1   14.1   15.2   19.8   39.6   0.39   29.0   19.1   24.1   25.6   18.7   24.1   25.6    2.2  337.7   0.00   0.00 -99.00 1980009
 1980 010     9    0.2   14.1   15.2   25.2   50.4   0.23   29.9   18.8   24.5   26.1   18.2   24.5   26.1    2.1  337.7   0.00   0.00 -99.00 1980010
 1980 011    10    0.0   14.1   15.2   29.3   58.6   0.10   31.2   19.1   25.3   27.0   17.2   25.3   27.0    1.8  337.7   0.00   0.00 -99.00 1980011
 1980 012    11    0.0   14.1   15.2   29.9   59.8   0.08   29.5   17.9   23.8   25.5   17.0   23.8   25.5    2.3  337.7   0.00   0.00 -99.00 1980012
 1980 013    12    0.0   14.0   15.2   29.4   58.8   0.10   30.5   19.1   24.9   26.6   17.7   24.9   26.6    3.1  337.7   0.00   0.00 -99.00 1980013
 1980 014    13    0.0   14.0   15.1   29.7   59.4   0.08   31.8   19.1   25.6   27.4   16.7   25.6   27.4    3.6  337.7   0.00   0.00 -99.00 1980014
 1980 015    14    0.0   14.0   15.1   29.2   58.4   0.10   29.9   18.7   24.4   26.0   17.0   24.4   26.0    3.6  337.9   0.00   0.00 -99.00 1980015
 1980 016    15    0.0   14.0   15.1   28.2   56.4   0.13   30.8   20.2   25.6   27.5   18.5   25.6   27.5    3.7  337.9   0.00   0.00 -99.00 1980016
 1980 017    16    0.0   14.0   15.1   24.0   48.0   0.26   32.2   20.7   26.5   28.7   20.6   26.5   28.7    2.3  337.9   0.00   0.00 -99.00 1980017
 1980 018    17    0.7   13.9   15.1   21.4   42.8   0.34   32.2   21.8   27.1   29.0   21.3   27.1   29.0    1.5  337.9   0.00   0.00 -99.00 1980018
 1980 019    18    2.2   13.9   15.0   25.7   51.4   0.20   32.8   20.6   26.8   29.0   18.4   26.8   29.0    1.8  337.9   0.00   0.00 -99.00 1980019
 1980 020    19    1.5   13.9   15.0   26.7   53.4   0.17   28.3   18.6   23.5   25.3   17.0   23.5   25.3    2.8  337.9   0.00   0.00 -99.00 1980020
 1980 021    20    0.2   13.9   15.0   27.2   54.4   0.15   32.9   18.5   25.8   28.4   13.9   25.8   28.4    1.0  337.9   0.00   0.00 -99.00 1980021
 1980 022    21    0.0   13.9   15.0   26.0   52.0   0.19   35.8   19.9   27.9   30.9   14.0   27.9   30.9    2.3  337.9   0.00   0.00 -99.00 1980022
 1980 023    22   13.0   13.8   14.9   20.7   41.4   0.35   36.4   23.2   29.9   32.3   19.9   29.9   32.3    3.5  337.9   0.00   0.00 -99.00 1980023
 1980 024    23    7.0   13.8   14.9   19.6   39.2   0.38   28.0   19.2   23.6   25.3   12.1   23.6   25.3    3.2  337.9   0.00   0.00 -99.00 1980024
 1980 025    24    0.0   13.8   14.9   29.4   58.8   0.07   27.8   13.7   20.8   23.4   10.5   20.8   23.4    2.2  337.9   0.00   0.00 -99.00 1980025
 1980 026    25    0.0   13.8   14.9   29.4   58.8   0.07   32.5   16.5   24.6   27.5   14.0   24.6   27.5    1.8  337.9   0.00   0.00 -99.00 1980026
 1980 027    26    0.0   13.7   14.8   23.3   46.6   0.26   32.6   18.7   25.7   28.3   19.0   25.7   28.3    2.6  337.9   0.00   0.00 -99.00 1980027
 1980 028    27    0.0   13.7   14.8   23.9   47.8   0.24   28.6   19.2   23.9   25.7   17.9   23.9   25.7    3.5  337.9   0.00   0.00 -99.00 1980028
 1980 029    28    0.0   13.7   14.8   28.3   56.6   0.10   31.4   17.6   24.5   27.1   16.6   24.5   27.1    2.8  337.9   0.00   0.00 -99.00 1980029
 1980 030    29    0.0   13.7   14.8   22.1   44.2   0.29   34.7   20.8   27.8   30.3   19.2   27.8   30.3    2.3  337.9   0.00   0.00 -99.00 1980030
 1980 031    30    1.3   13.6   14.7   17.5   35.0   0.44   29.7   21.8   25.8   27.2   20.1   25.8   27.2    2.7  337.9   0.00   0.00 -99.00 1980031
 1980 032    31    0.0   13.6   14.7   25.2   50.4   0.19   29.8   20.2   25.0   26.8   18.5   25.0   26.8    3.0  337.9   0.00   0.00 -99.00 1980032
 1980 033    32    0.0   13.6   14.7   26.7   53.4   0.14   29.3   16.6   23.0   25.3   16.6   23.0   25.3    3.0  337.9   0.00   0.00 -99.00 1980033
 1980 034    33    0.0   13.6   14.6   26.5   53.0   0.14   30.7   20.1   25.4   27.3   19.3   25.4   27.3    2.6  337.9   0.00   0.00 -99.00 1980034
 1980 035    34    0.0   13.5   14.6   22.6   45.2   0.27   32.3   20.1   26.2   28.4   19.9   26.2   28.4    3.2  337.9   0.00   0.00 -99.00 1980035
 1980 036    35    2.5   13.5   14.6   13.2   26.4   0.57   29.5   21.8   25.7   27.0   21.7   25.7   27.0    2.1  337.9   0.00   0.00 -99.00 1980036
 1980 037    36    4.1   13.5   14.5   27.4   54.8   0.11   31.2   20.4   25.8   27.8   17.6   25.8   27.8    2.0  337.9   0.00   0.00 -99.00 1980037
 1980 038    37    2.4   13.5   14.5   26.6   53.2   0.13   31.5   19.5   25.5   27.7   14.8   25.5   27.7    2.1  337.9   0.00   0.00 -99.00 1980038
 1980 039    38    0.0   13.4   14.5   28.4   56.8   0.07   31.4   17.9   24.6   27.1   12.5   24.6   27.1    1.1  337.9   0.00   0.00 -99.00 1980039
 1980 040    39    0.0   13.4   14.5   26.5   53.0   0.13   35.8   20.5   28.1   30.9   19.9   28.1   30.9    3.6  337.9   0.00   0.00 -99.00 1980040
 1980 041    40    8.7   13.4   14.4   10.2   20.4   0.66   29.9   19.7   24.8   26.6   23.3   24.8   26.6    2.5  337.9   0.00   0.00 -99.00 1980041
 1980 042    41   12.2   13.3   14.4   22.5   45.0   0.25   27.7   17.6   22.6   24.4   17.0   22.6   24.4    1.4  337.9   0.00   0.00 -99.00 1980042
 1980 043    42    0.0   13.3   14.4   28.0   56.0   0.07   32.9   18.2   25.5   28.1   16.7   25.5   28.1    1.3  337.9   0.00   0.00 -99.00 1980043
 1980 044    43    0.0   13.3   14.3   26.9   53.8   0.10   31.5   20.1   25.8   27.8   18.6   25.8   27.8    2.9  337.9   0.00   0.00 -99.00 1980044
 1980 045    44    0.0   13.2   14.3   26.3   52.6   0.11   31.7   19.9   25.8   27.9   19.3   25.8   27.9    2.6  338.0   0.00   0.00 -99.00 1980045
 1980 046    45    2.4   13.2   14.3   24.0   48.0   0.19   33.1   21.4   27.2   29.3   21.5   27.2   29.3    2.4  338.0   0.00   0.00 -99.00 1980046
 1980 047    46   19.3   13.2   14.2   14.5   29.0   0.51   31.7   21.8   26.7   28.5   23.3   26.7   28.5    1.6  338.0   0.00   0.00 -99.00 1980047
 1980 048    47   12.4   13.1   14.2   17.1   34.2   0.42   27.5   20.8   24.1   25.3   20.0   24.1   25.3    3.3  338.0   0.00   0.00 -99.00 1980048
 1980 049    48    0.0   13.1   14.2   22.6   45.2   0.23   27.0   16.6   21.7   23.6   13.8   21.7   23.6    3.0  338.0   0.00   0.00 -99.00 1980049
 1980 050    49    0.0   13.1   14.1   21.9   43.8   0.25   26.3   15.6   20.9   22.8   13.5   20.9   22.8    2.5  338.0   0.00   0.00 -99.00 1980050
 1980 051    50    0.3   13.1   14.1   17.6   35.2   0.39   28.2   16.5   22.3   24.3   15.6   22.3   24.3    2.6  338.0   0.00   0.00 -99.00 1980051
 1980 052    51    0.0   13.0   14.1   15.6   31.2   0.46   27.4   17.6   22.4   24.2   18.8   22.4   24.2    2.6  338.0   0.00   0.00 -99.00 1980052
 1980 053    52    0.1   13.0   14.0   21.2   42.4   0.26   30.6   19.7   25.1   27.0   19.2   25.1   27.0    1.6  338.0   0.00   0.00 -99.00 1980053
 1980 054    53    0.0   13.0   14.0   15.3   30.6   0.46   29.9   20.3   25.0   26.7   20.5   25.0   26.7    2.0  338.0   0.00   0.00 -99.00 1980054
 1980 055    54    1.4   12.9   13.9   15.0   30.0   0.47   29.0   20.1   24.5   26.0   22.1   24.5   26.0    1.9  338.0   0.00   0.00 -99.00 1980055
 1980 056    55    0.1   12.9   13.9   20.2   40.4   0.28   29.6   20.7   25.1   26.6   19.7   25.1   26.6    1.8  338.0   0.00   0.00 -99.00 1980056
 1980 057    56    0.0   12.9   13.9   22.5   45.0   0.20   30.6   20.7   25.6   27.3   20.7   25.6   27.3    1.7  338.0   0.00   0.00 -99.00 1980057
 1980 058    57    0.1   12.8   13.8   22.3   44.6   0.20   32.7   20.0   26.2   28.4   20.3   26.2   28.4    1.5  338.0   0.00   0.00 -99.00 1980058
 1980 059    58    0.1   12.8   13.8   23.7   47.4   0.15   34.4   21.7   27.9   30.1   20.5   27.9   30.1    1.5  338.0   0.00   0.00 -99.00 1980059
 1980 060    59    0.0   12.8   13.8   19.7   39.4   0.29   33.9   23.5   28.6   30.4   22.8   28.6   30.4    2.1  338.0   0.00   0.00 -99.00 1980060
 1980 061    60    0.5   12.7   13.7   19.1   38.2   0.31   31.6   20.9   26.1   28.0   22.2   26.1   28.0    1.7  338.0   0.00   0.00 -99.00 1980061
 1980 062    61   16.1   12.7   13.7   13.9   27.8   0.49   30.0   23.0   26.4   27.6   23.4   26.4   27.6    2.2  338.0   0.00   0.00 -99.00 1980062
 1980 063    62    2.5   12.6   13.7    9.4   18.8   0.65   24.5   21.7   23.1   23.5   21.6   23.1   23.5    2.8  338.0   0.00   0.00 -99.00 1980063
 1980 064    63    0.0   12.6   13.6   16.2   32.4   0.40   29.6   21.6   25.5   26.9   22.7   25.5   26.9    2.0  338.0   0.00   0.00 -99.00 1980064
 1980 065    64   19.6   12.6   13.6   23.1   46.2   0.14   34.8   22.2   28.3   30.5   22.1   28.3   30.5    1.9  338.0   0.00   0.00 -99.00 1980065
 1980 066    65   27.0   12.5   13.6   15.4   30.8   0.42   31.2   21.4   26.2   27.8   23.1   26.2   27.8    2.1  338.0   0.00   0.00 -99.00 1980066
 1980 067    66   17.1   12.5   13.5   15.3   30.6   0.42   29.8   21.1   25.3   26.8   22.5   25.3   26.8    2.1  338.0   0.00   0.00 -99.00 1980067
 1980 068    67    0.8   12.5   13.5   18.6   37.2   0.30   31.1   21.2   26.0   27.7   21.5   26.0   27.7    1.4  338.0   0.00   0.00 -99.00 1980068
 1980 069    68    0.0   12.4   13.4   22.2   44.4   0.15   32.9   21.1   26.8   28.8   21.1   26.8   28.8    0.7  338.0   0.00   0.00 -99.00 1980069
 1980 070    69    0.3   12.4   13.4   17.4   34.8   0.33   33.8   21.8   27.6   29.6   22.9   27.6   29.6    1.1  338.0   0.00   0.00 -99.00 1980070
 1980 071    70    0.3   12.4   13.4    9.0   18.0   0.65   28.1   22.2   25.1   26.0   23.6   25.1   26.0    1.0  338.0   0.00   0.00 -99.00 1980071
 1980 072    71   12.1   12.3   13.3   10.3   20.6   0.60   27.2   22.0   24.5   25.4   22.7   24.5   25.4    1.6  338.0   0.00   0.00 -99.00 1980072
 1980 073    72    9.8   12.3   13.3   19.9   39.8   0.22   28.1   20.2   24.0   25.3   20.3   24.0   25.3    1.8  338.0   0.00   0.00 -99.00 1980073
 1980 074    73    1.6   12.3   13.3   22.0   44.0   0.13   28.9   18.5   23.5   25.2   18.4   23.5   25.2    2.1  338.0   0.00   0.00 -99.00 1980074
 1980 075    74    0.0   12.2   13.2   21.9   43.8   0.13   29.9   19.4   24.5   26.2   19.3   24.5   26.2    2.5  338.2   0.00   0.00 -99.00 1980075
 1980 076    75    0.0   12.2   13.2   20.7   41.4   0.17   30.1   19.8   24.8   26.5   20.1   24.8   26.5    1.9  338.2   0.00   0.00 -99.00 1980076
 1980 077    76    0.0   12.2   13.2   20.1   40.2   0.19   31.0   20.8   25.7   27.4   20.6   25.7   27.4    1.5  338.2   0.00   0.00 -99.00 1980077
 1980 078    77    0.1   12.1   13.1   20.0   40.0   0.19   33.6   22.6   27.9   29.7   23.3   27.9   29.7    1.8  338.2   0.00   0.00 -99.00 1980078
 1980 079    78    0.0   12.1   13.1   20.5   41.0   0.16   33.0   23.3   28.0   29.5   24.5   28.0   29.5    1.2  338.2   0.00   0.00 -99.00 1980079
 1980 080    79    0.0   12.0   13.0   20.1   40.2   0.17   35.2   22.5   28.6   30.7   22.9   28.6   30.7    1.5  338.2   0.00   0.00 -99.00 1980080
 1980 081    80    0.0   12.0   13.0   20.4   40.8   0.16   35.4   23.1   29.0   31.0   22.0   29.0   31.0    1.3  338.2   0.00   0.00 -99.00 1980081
 1980 082    81    0.0   12.0   13.0   20.2   40.4   0.16   35.5   24.3   29.7   31.9   22.0   29.7   31.9    2.0  338.2   0.00   0.00 -99.00 1980082
 1980 083    82    4.0   11.9   12.9   19.3   38.6   0.19   36.4   24.5   30.2   32.6   23.4   30.2   32.6    1.5  338.2   0.00   0.00 -99.00 1980083
 1980 084    83    7.6   11.9   12.9   17.3   34.6   0.27   35.9   24.7   30.0   32.3   24.4   30.0   32.3    2.1  338.2   0.00   0.00 -99.00 1980084
 1980 085    84   12.3   11.9   12.9   10.4   20.8   0.56   30.3   22.0   26.0   27.6   23.4   26.0   27.6    2.2  338.2   0.00   0.00 -99.00 1980085
 1980 086    85   26.1   11.8   12.8    8.7   17.4   0.63   26.8   21.1   23.8   25.0   22.1   23.8   25.0    1.7  338.2   0.00   0.00 -99.00 1980086
 1980 087    86    2.2   11.8   12.8    8.3   16.6   0.64   28.6   22.4   25.3   26.6   23.4   25.3   26.6    1.5  338.2   0.00   0.00 -99.00 1980087
 1980 088    87    6.1   11.8   12.8    9.2   18.4   0.60   27.3   22.0   24.5   25.6   22.6   24.5   25.6    2.3  338.2   0.00   0.00 -99.00 1980088
 1980 089    88    1.5   11.7   12.7   13.9   27.8   0.39   27.7   20.7   24.0   25.4   21.1   24.0   25.4    3.3  338.2   0.00   0.00 -99.00 1980089
 1980 090    89    0.0   11.7   12.7   16.5   33.0   0.27   25.1   16.4   20.5   22.2   15.6   20.5   22.2    2.7  338.2   0.00   0.00 -99.00 1980090
 1980 091    90    0.0   11.7   12.6   18.7   37.4   0.16   25.8   15.8   20.5   22.5   15.6   20.5   22.5    2.8  338.2   0.00   0.00 -99.00 1980091
 1980 092    91    0.0   11.6   12.6   16.6   33.2   0.25   27.7   17.0   22.1   24.2   17.6   22.1   24.2    2.9  338.2   0.00   0.00 -99.00 1980092
 1980 093    92    0.0   11.6   12.6   14.1   28.2   0.36   28.2   17.5   22.6   24.7   18.0   22.6   24.7    2.4  338.2   0.00   0.00 -99.00 1980093
 1980 094    93    0.0   11.5   12.5   18.3   36.6   0.16   29.3   17.8   23.2   25.5   19.2   23.2   25.5    1.8  338.2   0.00   0.00 -99.00 1980094
 1980 095    94    0.0   11.5   12.5   18.0   36.0   0.17   31.1   19.6   25.0   27.3   20.1   25.0   27.3    1.2  338.2   0.00   0.00 -99.00 1980095
 1980 096    95    0.0   11.5   12.5   17.4   34.8   0.19   29.8   19.5   24.4   26.4   20.4   24.4   26.4    1.0  338.2   0.00   0.00 -99.00 1980096
 1980 097    96    0.0   11.4   12.4   16.0   32.0   0.25   29.5   18.9   23.9   26.0   19.4   23.9   26.0    1.2  338.2   0.00   0.00 -99.00 1980097
 1980 098    97    0.0   11.4   12.4   14.3   28.6   0.32   26.8   18.5   22.4   24.0   18.5   22.4   24.0    3.4  338.2   0.00   0.00 -99.00 1980098
 1980 099    98    5.6   11.4   12.4   10.3   20.6   0.51   26.9   19.7   23.1   24.5   19.8   23.1   24.5    2.8  338.2   0.00   0.00 -99.00 1980099
 1980 100    99    6.5   11.3   12.3   17.0   34.0   0.18   30.8   20.2   25.2   27.2   21.2   25.2   27.2    1.3  338.2   0.00   0.00 -99.00 1980100
 1980 101   100   21.5   11.3   12.3    9.0   18.0   0.56   30.8   22.1   26.2   27.9   23.5   26.2   27.9    3.3  338.2   0.00   0.00 -99.00 1980101
 1980 102   101   43.2   11.3   12.3    9.4   18.8   0.54   31.4   19.3   25.0   27.3   21.5   25.0   27.3    3.5  338.2   0.00   0.00 -99.00 1980102
 1980 103   102   31.3   11.2   12.2    6.9   13.8   0.66   24.9   17.6   21.0   22.4   19.6   21.0   22.4    2.9  338.2   0.00   0.00 -99.00 1980103
 1980 104   103    0.0   11.2   12.2   11.3   22.6   0.44   20.2   13.9   16.8   18.1   11.8   16.8   18.1    2.3  338.2   0.00   0.00 -99.00 1980104
 1980 105   104    0.0   11.2   12.2   10.8   21.6   0.46   17.4   11.3   14.2   15.3    7.9   14.2   15.3    2.0  338.2   0.00   0.00 -99.00 1980105
 1980 106   105    0.5   11.1   12.1   18.5   37.0   0.06   19.9    8.6   13.9   16.0    7.6   13.9   16.0    1.3  338.4   0.00   0.00 -99.00 1980106
 1980 107   106    0.0   11.1   12.1   16.3   32.6   0.16   22.2    8.5   14.9   17.5    8.1   14.9   17.5    1.6  338.4   0.00   0.00 -99.00 1980107
 1980 108   107    3.0   11.1   12.1   10.9   21.8   0.44   24.1   12.5   17.9   20.1   14.1   17.9   20.1    2.8  338.4   0.00   0.00 -99.00 1980108
 1980 109   108   16.8   11.0   12.0    7.7   15.4   0.60   26.2   18.5   22.1   23.5   20.6   22.1   23.5    1.7  338.4   0.00   0.00 -99.00 1980109
 1980 110   109   18.4   11.0   12.0    6.6   13.2   0.65   25.4   21.1   23.1   23.9   21.2   23.1   23.9    1.4  338.4   0.00   0.00 -99.00 1980110
 1980 111   110   17.7   11.0   12.0    9.2   18.4   0.51   29.3   21.3   25.0   26.5   22.7   25.0   26.5    1.6  338.4   0.00   0.00 -99.00 1980111
 1980 112   111    2.6   10.9   11.9   12.6   25.2   0.33   32.1   20.9   26.1   28.2   22.6   26.1   28.2    2.1  338.4   0.00   0.00 -99.00 1980112
 1980 113   112    0.2   10.9   11.9   17.6   35.2   0.05   31.2   20.5   25.5   27.5   19.8   25.5   27.5    1.9  338.4   0.00   0.00 -99.00 1980113
 1980 114   113    0.0   10.9   11.9   15.2   30.4   0.17   32.4   20.7   26.1   28.3   20.2   26.1   28.3    3.1  338.4   0.00   0.00 -99.00 1980114
 1980 115   114    5.1   10.8   11.9   16.5   33.0   0.09   31.9   21.3   26.2   28.2   20.4   26.2   28.2    2.0  338.4   0.00   0.00 -99.00 1980115
 1980 116   115    1.7   10.8   11.8   13.2   26.4   0.27   30.4   21.4   25.6   27.2   21.6   25.6   27.2    1.6  338.4   0.00   0.00 -99.00 1980116
 1980 117   116    0.0   10.8   11.8   13.2   26.4   0.26   28.3   18.6   23.1   24.9   19.6   23.1   24.9    2.4  338.4   0.00   0.00 -99.00 1980117
 1980 118   117    0.0   10.7   11.8   14.5   29.0   0.18   30.5   19.0   24.3   26.4   18.5   24.3   26.4    1.9  338.4   0.00   0.00 -99.00 1980118
 1980 119   118    0.0   10.7   11.7   14.2   28.4   0.19   30.8   19.0   24.4   26.6   18.8   24.4   26.6    1.4  338.4   0.00   0.00 -99.00 1980119
 1980 120   119    0.0   10.7   11.7   13.9   27.8   0.20   30.7   18.8   24.3   26.5   18.1   24.3   26.5    2.3  338.4   0.00   0.00 -99.00 1980120
 1980 121   120    0.8   10.6   11.7    6.8   13.6   0.61   24.7   16.4   20.2   21.7   18.1   20.2   21.7    2.6  338.4   0.00   0.00 -99.00 1980121
 1980 122   121    1.0   10.6   11.6    7.3   14.6   0.57   18.4   12.5   15.2   16.3   12.3   15.2   16.3    3.5  338.4   0.00   0.00 -99.00 1980122
 1980 123   122    0.0   10.6   11.6   12.0   24.0   0.29   17.9   10.2   13.7   15.1    9.8   13.7   15.1    2.0  338.4   0.00   0.00 -99.00 1980123
 1980 124   123    0.1   10.6   11.6   13.6   27.2   0.19   17.1    9.9   13.2   14.5    8.5   13.2   14.5    1.7  338.4   0.00   0.00 -99.00 1980124
 1980 125   124    0.3   10.5   11.6   12.3   24.6   0.26   19.6    9.0   13.9   15.8    9.5   13.9   15.8    2.5  338.4   0.00   0.00 -99.00 1980125
 1980 126   125    0.4   10.5   11.5   13.8   27.6   0.16   21.2    9.4   14.8   16.9   10.9   14.8   16.9    0.9  338.4   0.00   0.00 -99.00 1980126
 1980 127   126    0.0   10.5   11.5   13.0   26.0   0.21   23.0   11.8   16.9   18.9   12.3   16.9   18.9    1.1  338.4   0.00   0.00 -99.00 1980127
 1980 128   127    1.5   10.4   11.5    6.6   13.2   0.59   20.1   12.2   15.8   17.2   13.1   15.8   17.2    1.4  338.4   0.00   0.00 -99.00 1980128
 1980 129   128    0.0   10.4   11.5    6.3   12.6   0.61   21.7   13.6   17.3   18.7   16.4   17.3   18.7    1.5  338.4   0.00   0.00 -99.00 1980129
 1980 130   129    5.1   10.4   11.4    6.1   12.2   0.62   22.3   17.6   19.7   20.6   18.5   19.7   20.6    3.1  338.4   0.00   0.00 -99.00 1980130
 1980 131   130    3.2   10.4   11.4   10.1   20.2   0.36   25.3   17.4   21.0   22.4   18.6   21.0   22.4    1.6  338.4   0.00   0.00 -99.00 1980131
 1980 132   131    0.0   10.3   11.4   13.4   26.8   0.15   28.5   16.4   21.9   24.1   18.3   21.9   24.1    1.7  338.4   0.00   0.00 -99.00 1980132
 1980 133   132    0.0   10.3   11.4   13.8   27.6   0.11   29.2   17.3   22.7   24.8   19.0   22.7   24.8    2.7  338.4   0.00   0.00 -99.00 1980133
 1980 134   133    0.0   10.3   11.3   14.8   29.6   0.04   29.8   18.7   23.8   25.7   19.9   23.8   25.7    1.5  338.4   0.00   0.00 -99.00 1980134
 1980 135   134    0.0   10.3   11.3   13.5   27.0   0.12   30.1   18.6   23.8   25.8   20.0   23.8   25.8    2.0  338.4   0.00   0.00 -99.00 1980135
 1980 136   135    0.8   10.2   11.3    8.8   17.6   0.42   28.4   20.1   23.9   25.3   20.7   23.9   25.3    1.6  338.5   0.00   0.00 -99.00 1980136
 1980 137   136    3.3   10.2   11.3    5.3   10.6   0.65   22.4   17.5   19.7   20.6   19.0   19.7   20.6    2.1  338.5   0.00   0.00 -99.00 1980137
 1980 138   137    0.0   10.2   11.2    6.8   13.6   0.55   22.1   15.2   18.3   19.5   16.3   18.3   19.5    1.9  338.5   0.00   0.00 -99.00 1980138
 1980 139   138    0.0   10.2   11.2    6.5   13.0   0.56   24.4   18.0   20.9   22.0   19.2   20.9   22.0    1.0  338.5   0.00   0.00 -99.00 1980139
 1980 140   139    0.0   10.1   11.2    8.3   16.6   0.44   25.3   18.5   21.6   22.8   20.1   21.6   22.8    1.2  338.5   0.00   0.00 -99.00 1980140
 1980 141   140    1.6   10.1   11.2    6.8   13.6   0.54   26.4   17.2   21.4   23.0   19.5   21.4   23.0    1.3  338.5   0.00   0.00 -99.00 1980141
 1980 142   141    3.1   10.1   11.2    5.4   10.8   0.63   22.9   19.9   21.3   21.8   20.4   21.3   21.8    3.0  338.5   0.00   0.00 -99.00 1980142
 1980 143   142   13.9   10.1   11.1    8.7   17.4   0.40   20.5   15.2   17.6   18.5   15.7   17.6   18.5    1.6  338.5   0.00   0.00 -99.00 1980143
 1980 144   143    0.0   10.1   11.1    9.7   19.4   0.33   23.9   12.8   17.8   19.7   14.7   17.8   19.7    1.6  338.5   0.00   0.00 -99.00 1980144
 1980 145   144    0.1   10.0   11.1   11.9   23.8   0.17   24.0   13.4   18.2   20.0   16.1   18.2   20.0    1.0  338.5   0.00   0.00 -99.00 1980145
 1980 146   145    0.0   10.0   11.1    8.2   16.4   0.42   21.9   13.8   17.5   18.8   15.2   17.5   18.8    1.2  338.5   0.00   0.00 -99.00 1980146
 1980 147   146    0.0   10.0   11.1   11.9   23.8   0.16   25.2   14.7   19.4   21.2   16.7   19.4   21.2    1.9  338.5   0.00   0.00 -99.00 1980147
 1980 148   147    0.1   10.0   11.1   13.4   26.8   0.05   27.1   13.7   19.7   22.5   14.5   19.7   22.5    2.5  338.5   0.00   0.00 -99.00 1980148
 1980 149   148    1.6   10.0   11.0    8.6   17.2   0.38   26.9   18.2   22.1   23.9   18.7   22.1   23.9    1.5  338.5   0.00   0.00 -99.00 1980149
 1980 150   149    6.8   10.0   11.0    8.6   17.2   0.38   23.1   15.0   18.7   20.3   16.5   18.7   20.3    2.4  338.5   0.00   0.00 -99.00 1980150
 1980 151   150   23.9    9.9   11.0    9.1   18.2   0.34   26.1   18.6   22.0   23.5   18.9   22.0   23.5    1.9  338.5   0.00   0.00 -99.00 1980151
 1980 152   151   10.1    9.9   11.0    5.7   11.4   0.59   24.9   19.6   22.0   23.1   20.1   22.0   23.1    2.0  338.5   0.00   0.00 -99.00 1980152
 1980 153   152   16.7    9.9   11.0    7.3   14.6   0.47   21.8   13.3   17.1   18.9   14.0   17.1   18.9    2.0  338.5   0.00   0.00 -99.00 1980153
 1980 154   153    0.1    9.9   11.0   11.0   22.0   0.19   14.9    7.2   10.7   12.2    5.7   10.7   12.2    2.1  338.5   0.00   0.00 -99.00 1980154
 1980 155   154    0.0    9.9   11.0   13.9   27.8   0.00   17.2    7.8   12.0   13.9    7.2   12.0   13.9    2.4  338.5   0.00   0.00 -99.00 1980155
 1980 156   155    0.0    9.9   10.9   14.5   29.0   0.00   21.3    9.9   15.0   17.3    9.8   15.0   17.3    1.4  338.5   0.00   0.00 -99.00 1980156
 1980 157   156    0.0    9.9   10.9   13.8   27.6   0.00   23.3   10.9   16.5   19.0   12.0   16.5   19.0    1.6  338.5   0.00   0.00 -99.00 1980157
 1980 158   157    0.0    9.8   10.9   12.3   24.6   0.08   24.3    9.1   15.9   19.0   11.9   15.9   19.0    1.0  338.5   0.00   0.00 -99.00 1980158
 1980 159   158    0.0    9.8   10.9    9.3   18.6   0.30   26.2   13.7   19.3   21.9   11.3   19.3   21.9    2.0  338.5   0.00   0.00 -99.00 1980159
 1980 160   159    0.0    9.8   10.9   10.1   20.2   0.24   26.2   14.3   19.6   22.1   15.7   19.6   22.1    2.6  338.5   0.00   0.00 -99.00 1980160
 1980 161   160    6.2    9.8   10.9    9.3   18.6   0.30   28.2   17.0   22.0   24.3   16.3   22.0   24.3    2.4  338.5   0.00   0.00 -99.00 1980161
 1980 162   161   28.4    9.8   10.9    6.5   13.0   0.51   26.2   17.1   21.2   23.0   18.4   21.2   23.0    1.6  338.5   0.00   0.00 -99.00 1980162
 1980 163   162   24.5    9.8   10.9    5.1   10.2   0.61   24.0   17.5   20.4   21.7   19.7   20.4   21.7    1.7  338.5   0.00   0.00 -99.00 1980163
 1980 164   163    8.1    9.8   10.9    4.6    9.2   0.65   21.4   17.1   19.0   19.9   17.7   19.0   19.9    2.3  338.5   0.00   0.00 -99.00 1980164
 1980 165   164    9.0    9.8   10.9    5.4   10.8   0.59   18.7   11.9   15.0   16.3   13.5   15.0   16.3    4.9  338.5   0.00   0.00 -99.00 1980165
 1980 166   165    4.6    9.8   10.9   10.2   20.4   0.22   16.9    8.8   12.4   14.1    9.4   12.4   14.1    1.7  338.5   0.00   0.00 -99.00 1980166
 1980 167   166    0.0    9.8   10.9   12.3   24.6   0.06   18.2    6.1   11.5   14.0    9.0   11.5   14.0    1.4  338.6   0.00   0.00 -99.00 1980167
 1980 168   167    0.0    9.8   10.8   11.6   23.2   0.11   22.5    7.2   14.1   17.1   10.6   14.1   17.1    1.5  338.6   0.00   0.00 -99.00 1980168
 1980 169   168    0.0    9.8   10.8    7.3   14.6   0.44   25.9   12.6   18.6   21.2   13.7   18.6   21.2    1.9  338.6   0.00   0.00 -99.00 1980169
 1980 170   169    1.7    9.8   10.8    7.7   15.4   0.41   24.4   14.0   18.7   20.8   15.3   18.7   20.8    2.0  338.6   0.00   0.00 -99.00 1980170
 1980 171   170   11.3    9.8   10.8    5.4   10.8   0.59   20.8   11.6   15.7   17.6   11.7   15.7   17.6    3.6  338.6   0.00   0.00 -99.00 1980171
 1980 172   171    0.0    9.8   10.8    4.7    9.4   0.64   16.6   12.6   14.4   15.2   10.1   14.4   15.2    3.9  338.6   0.00   0.00 -99.00 1980172
 1980 173   172    0.0    9.8   10.8   10.2   20.4   0.22   18.3   11.2   14.4   15.8   11.5   14.4   15.8    1.8  338.6   0.00   0.00 -99.00 1980173
 1980 174   173    0.0    9.8   10.8    8.8   17.6   0.32   20.3   10.8   15.1   17.0   11.0   15.1   17.0    2.0  338.6   0.00   0.00 -99.00 1980174
 1980 175   174    0.0    9.8   10.8   11.0   22.0   0.16   21.4    9.6   14.9   17.3   11.3   14.9   17.3    2.5  338.6   0.00   0.00 -99.00 1980175
 1980 176   175    6.7    9.8   10.8    5.0   10.0   0.62   18.0   10.8   14.0   15.5   12.9   14.0   15.5    2.9  338.6   0.00   0.00 -99.00 1980176
 1980 177   176   10.2    9.8   10.8    7.0   14.0   0.46   15.6    9.2   12.1   13.4    6.9   12.1   13.4    3.1  338.6   0.00   0.00 -99.00 1980177
 1980 178   177    0.2    9.8   10.8   12.1   24.2   0.07   16.8    8.1   12.0   13.8    7.0   12.0   13.8    1.7  338.6   0.00   0.00 -99.00 1980178
 1980 179   178    0.0    9.8   10.8   14.4   28.8   0.00   19.7    8.6   13.6   15.8    8.7   13.6   15.8    1.4  338.6   0.00   0.00 -99.00 1980179
 1980 180   179    0.0    9.8   10.9   13.5   27.0   0.00   21.8    6.8   13.5   16.6    7.2   13.5   16.6    1.9  338.6   0.00   0.00 -99.00 1980180
 1980 181   180    3.3    9.8   10.9    7.4   14.8   0.44   24.0   10.9   16.8   19.4   11.3   16.8   19.4    3.2  338.6   0.00   0.00 -99.00 1980181
 1980 182   181   28.2    9.8   10.9    5.2   10.4   0.61   25.2   13.3   18.6   21.0   17.7   18.6   21.0    4.4  338.6   0.00   0.00 -99.00 1980182
 1980 183   182    3.4    9.8   10.9    8.0   16.0   0.39   14.6    7.3   10.6   12.1    7.1   10.6   12.1    2.4  338.6   0.00   0.00 -99.00 1980183
 1980 184   183    0.0    9.8   10.9   11.2   22.4   0.15   14.9   10.2   12.3   13.3    9.0   12.3   13.3    2.4  338.6   0.00   0.00 -99.00 1980184
 1980 185   184    0.0    9.8   10.9    4.9    9.8   0.63   14.4   11.1   12.6   13.3   11.5   12.6   13.3    1.4  338.6   0.00   0.00 -99.00 1980185
 1980 186   185    0.0    9.8   10.9    9.1   18.2   0.32   19.1    9.3   13.7   15.7   12.1   13.7   15.7    1.1  338.6   0.00   0.00 -99.00 1980186
 1980 187   186    1.2    9.8   10.9   10.3   20.6   0.23   20.9   10.9   15.4   17.4   12.0   15.4   17.4    1.5  338.6   0.00   0.00 -99.00 1980187
 1980 188   187    0.5    9.9   10.9   10.9   21.8   0.19   24.6   12.9   18.2   20.5   14.3   18.2   20.5    1.7  338.6   0.00   0.00 -99.00 1980188
 1980 189   188   12.8    9.9   10.9    8.0   16.0   0.41   22.0   14.0   17.6   19.2   16.0   17.6   19.2    3.1  338.6   0.00   0.00 -99.00 1980189
 1980 190   189   19.3    9.9   10.9    6.2   12.4   0.54   21.1   13.7   17.0   18.5   15.0   17.0   18.5    1.8  338.6   0.00   0.00 -99.00 1980190
 1980 191   190    9.1    9.9   10.9   12.9   25.8   0.05   18.0    9.6   13.4   15.1    9.7   13.4   15.1    2.4  338.6   0.00   0.00 -99.00 1980191
 1980 192   191    0.0    9.9   11.0   10.2   20.4   0.25   16.1   10.5   13.0   14.2   10.1   13.0   14.2    1.6  338.6   0.00   0.00 -99.00 1980192
 1980 193   192    0.0    9.9   11.0   11.8   23.6   0.14   21.2    9.7   14.9   17.2   13.1   14.9   17.2    1.2  338.6   0.00   0.00 -99.00 1980193
 1980 194   193    0.0    9.9   11.0    8.4   16.8   0.39   19.9   13.5   16.4   17.7   14.2   16.4   17.7    1.1  338.6   0.00   0.00 -99.00 1980194
 1980 195   194    0.0   10.0   11.0    6.2   12.4   0.55   21.4   14.2   17.4   18.9   16.0   17.4   18.9    2.0  338.6   0.00   0.00 -99.00 1980195
 1980 196   195    0.0   10.0   11.0   10.9   21.8   0.22   19.9    6.9   12.8   15.4    6.6   12.8   15.4    3.4  338.6   0.00   0.00 -99.00 1980196
 1980 197   196    0.0   10.0   11.0   14.5   29.0   0.00   15.8    4.4    9.5   11.9    6.3    9.5   11.9    1.7  338.8   0.00   0.00 -99.00 1980197
 1980 198   197    0.0   10.0   11.0   12.8   25.6   0.09   23.8   10.5   16.5   18.8   12.2   16.5   18.8    1.8  338.8   0.00   0.00 -99.00 1980198
 1980 199   198    0.0   10.0   11.1   11.2   22.4   0.21   24.0    9.1   15.8   18.4   12.6   15.8   18.4    1.0  338.8   0.00   0.00 -99.00 1980199
 1980 200   199    0.0   10.0   11.1    8.7   17.4   0.39   22.6   11.4   16.5   18.4   11.8   16.5   18.4    2.7  338.8   0.00   0.00 -99.00 1980200
 1980 201   200    0.0   10.1   11.1   10.4   20.8   0.28   27.1   14.2   20.0   22.2   15.6   20.0   22.2    2.4  338.8   0.00   0.00 -99.00 1980201
 1980 202   201    3.5   10.1   11.1    5.5   11.0   0.62   24.0   13.6   18.3   20.1   16.8   18.3   20.1    2.4  338.8   0.00   0.00 -99.00 1980202
 1980 203   202    5.8   10.1   11.1   13.7   27.4   0.06   18.4   10.5   14.1   15.4    9.6   14.1   15.4    1.9  338.8   0.00   0.00 -99.00 1980203
 1980 204   203    0.0   10.1   11.1   14.3   28.6   0.03   20.5    7.6   13.4   15.7    5.2   13.4   15.7    2.1  338.8   0.00   0.00 -99.00 1980204
 1980 205   204    0.0   10.1   11.2   14.0   28.0   0.05   20.5    9.0   14.2   16.2    7.1   14.2   16.2    1.3  338.8   0.00   0.00 -99.00 1980205
 1980 206   205    0.0   10.2   11.2   13.0   26.0   0.13   22.8    9.5   15.5   17.8   10.7   15.5   17.8    3.3  338.8   0.00   0.00 -99.00 1980206
 1980 207   206    6.9   10.2   11.2   11.9   23.8   0.21   24.9   11.6   17.6   19.9   13.3   17.6   19.9    2.6  338.8   0.00   0.00 -99.00 1980207
 1980 208   207   19.2   10.2   11.2    6.8   13.6   0.55   25.0   14.6   19.3   21.1   16.5   19.3   21.1    4.0  338.8   0.00   0.00 -99.00 1980208
 1980 209   208    2.4   10.2   11.2   14.1   28.2   0.07   18.7    9.9   13.9   15.4    6.9   13.9   15.4    2.7  338.8   0.00   0.00 -99.00 1980209
 1980 210   209    0.1   10.3   11.3    7.5   15.0   0.51   18.4    9.2   13.4   15.0   11.9   13.4   15.0    3.1  338.8   0.00   0.00 -99.00 1980210
 1980 211   210    1.7   10.3   11.3    6.9   13.8   0.55   16.5   10.0   13.0   14.1    9.0   13.0   14.1    2.7  338.8   0.00   0.00 -99.00 1980211
 1980 212   211    0.0   10.3   11.3    6.9   13.8   0.56   16.2    8.4   12.0   13.3   10.0   12.0   13.3    1.6  338.8   0.00   0.00 -99.00 1980212
 1980 213   212    0.0   10.3   11.3   15.9   31.8   0.00   18.9    6.5   12.2   14.3    6.1   12.2   14.3    1.4  338.8   0.00   0.00 -99.00 1980213
 1980 214   213    0.0   10.4   11.4   16.2   32.4   0.00   20.7    7.4   13.5   15.8    5.1   13.5   15.8    1.6  338.8   0.00   0.00 -99.00 1980214
 1980 215   214    0.0   10.4   11.4    6.7   13.4   0.58   22.6    9.6   15.5   17.8   11.0   15.5   17.8    1.0  338.8   0.00   0.00 -99.00 1980215
 1980 216   215    0.0   10.4   11.4   14.0   28.0   0.13   24.1   12.1   17.6   19.7   13.4   17.6   19.7    2.6  338.8   0.00   0.00 -99.00 1980216
 1980 217   216   16.8   10.4   11.4   11.0   22.0   0.32   24.8   14.0   18.9   20.9   15.7   18.9   20.9    3.5  338.8   0.00   0.00 -99.00 1980217
 1980 218   217   36.8   10.5   11.5    5.9   11.8   0.64   20.6   16.4   18.3   19.1   17.1   18.3   19.1    1.7  338.8   0.00   0.00 -99.00 1980218
 1980 219   218   21.2   10.5   11.5    6.2   12.4   0.62   17.9   13.3   15.4   16.2   13.7   15.4   16.2    2.7  338.8   0.00   0.00 -99.00 1980219
 1980 220   219    1.6   10.5   11.5   14.6   29.2   0.12   22.1   13.0   17.2   18.8   12.9   17.2   18.8    1.8  338.8   0.00   0.00 -99.00 1980220
 1980 221   220    0.2   10.6   11.5   15.4   30.8   0.08   22.0    9.9   15.5   17.6    8.6   15.5   17.6    0.8  338.8   0.00   0.00 -99.00 1980221
 1980 222   221    0.0   10.6   11.6   14.3   28.6   0.16   22.3    8.7   15.0   17.4   10.2   15.0   17.4    1.9  338.8   0.00   0.00 -99.00 1980222
 1980 223   222    0.0   10.6   11.6   14.8   29.6   0.13   25.3   12.8   18.6   20.8   15.2   18.6   20.8    1.4  338.8   0.00   0.00 -99.00 1980223
 1980 224   223    0.0   10.6   11.6   12.8   25.6   0.26   18.2   10.9   14.3   15.6    7.2   14.3   15.6    2.1  338.8   0.00   0.00 -99.00 1980224
 1980 225   224    0.0   10.7   11.6   16.2   32.4   0.07   17.8    5.4   11.1   13.4    4.1   11.1   13.4    2.6  338.8   0.00   0.00 -99.00 1980225
 1980 226   225    0.0   10.7   11.7   12.5   25.0   0.29   23.0    8.3   15.1   17.8    9.4   15.1   17.8    1.0  338.8   0.00   0.00 -99.00 1980226
 1980 227   226    0.0   10.7   11.7   16.0   32.0   0.10   21.9    9.5   15.2   17.5   12.4   15.2   17.5    1.5  338.8   0.00   0.00 -99.00 1980227
 1980 228   227    0.0   10.8   11.7   14.7   29.4   0.18   26.4   14.6   20.1   22.2   16.6   20.1   22.2    0.6  338.9   0.00   0.00 -99.00 1980228
 1980 229   228    6.2   10.8   11.8   12.1   24.2   0.33   28.6   16.2   21.9   24.2   17.3   21.9   24.2    1.5  338.9   0.00   0.00 -99.00 1980229
 1980 230   229   10.7   10.8   11.8    8.2   16.4   0.55   22.9   14.6   18.4   20.0   16.3   18.4   20.0    2.7  338.9   0.00   0.00 -99.00 1980230
 1980 231   230    0.4   10.9   11.8   12.5   25.0   0.32   21.4   10.9   15.8   17.7   12.6   15.8   17.7    2.3  338.9   0.00   0.00 -99.00 1980231
 1980 232   231    0.0   10.9   11.9    6.7   13.4   0.64   22.2   16.9   19.4   20.3   18.1   19.4   20.3    2.0  338.9   0.00   0.00 -99.00 1980232
 1980 233   232    0.6   10.9   11.9    8.1   16.2   0.57   18.4   11.5   14.7   16.0   12.2   14.7   16.0    2.6  338.9   0.00   0.00 -99.00 1980233
 1980 234   233    0.1   11.0   11.9    6.4   12.8   0.66   19.9   15.2   17.4   18.3   17.2   17.4   18.3    1.3  338.9   0.00   0.00 -99.00 1980234
 1980 235   234    1.6   11.0   11.9   11.3   22.6   0.41   17.2   10.6   13.7   14.9    6.0   13.7   14.9    3.5  338.9   0.00   0.00 -99.00 1980235
 1980 236   235    0.0   11.0   12.0   18.5   37.0   0.04   18.0    7.9   12.6   14.5    6.6   12.6   14.5    1.6  338.9   0.00   0.00 -99.00 1980236
 1980 237   236    0.0   11.1   12.0   15.8   31.6   0.18   19.5    5.6   12.1   14.7    2.8   12.1   14.7    1.1  338.9   0.00   0.00 -99.00 1980237
 1980 238   237    0.3   11.1   12.0   15.4   30.8   0.21   20.5    8.4   14.0   16.3    6.8   14.0   16.3    1.7  338.9   0.00   0.00 -99.00 1980238
 1980 239   238    0.2   11.1   12.1   15.0   30.0   0.24   14.8    6.9   10.6   12.1    3.9   10.6   12.1    3.4  338.9   0.00   0.00 -99.00 1980239
 1980 240   239    0.0   11.2   12.1   14.5   29.0   0.27   15.9    7.8   11.6   13.1    6.8   11.6   13.1    2.5  338.9   0.00   0.00 -99.00 1980240
 1980 241   240    0.0   11.2   12.1   17.7   35.4   0.12   19.5    5.8   12.2   14.8    8.8   12.2   14.8    3.1  338.9   0.00   0.00 -99.00 1980241
 1980 242   241    0.0   11.2   12.2   16.9   33.8   0.16   25.6   10.1   17.4   20.3   10.6   17.4   20.3    2.2  338.9   0.00   0.00 -99.00 1980242
 1980 243   242    0.0   11.3   12.2   11.0   22.0   0.46   25.0   13.1   18.7   21.0   14.6   18.7   21.0    2.2  338.9   0.00   0.00 -99.00 1980243
 1980 244   243    0.0   11.3   12.2    7.0   14.0   0.66   23.5   16.2   19.6   21.0   17.1   19.6   21.0    1.9  338.9   0.00   0.00 -99.00 1980244
 1980 245   244    0.0   11.3   12.3    7.1   14.2   0.66   22.5   16.9   19.5   20.6   18.6   19.5   20.6    2.1  338.9   0.00   0.00 -99.00 1980245
 1980 246   245    3.2   11.4   12.3   11.7   23.4   0.44   20.8   11.1   15.7   17.5   10.7   15.7   17.5    0.9  338.9   0.00   0.00 -99.00 1980246
 1980 247   246    1.5   11.4   12.3   16.2   32.4   0.23   23.3   13.4   18.1   20.0   10.1   18.1   20.0    3.3  338.9   0.00   0.00 -99.00 1980247
 1980 248   247    1.1   11.4   12.4   18.4   36.8   0.14   17.4    5.1   10.9   13.3   -1.2   10.9   13.3    2.5  338.9   0.00   0.00 -99.00 1980248
 1980 249   248    0.0   11.5   12.4   20.0   40.0   0.07   19.8    4.6   11.8   14.7    1.7   11.8   14.7    1.5  338.9   0.00   0.00 -99.00 1980249
 1980 250   249    0.0   11.5   12.4   18.5   37.0   0.15   24.0    7.8   15.4   18.6    3.9   15.4   18.6    1.2  338.9   0.00   0.00 -99.00 1980250
 1980 251   250    0.0   11.5   12.5   19.0   38.0   0.13   28.6   10.6   19.1   22.6   10.5   19.1   22.6    2.9  338.9   0.00   0.00 -99.00 1980251
 1980 252   251    1.5   11.6   12.5    7.3   14.6   0.67   19.3   13.7   16.3   17.4   14.9   16.3   17.4    2.5  338.9   0.00   0.00 -99.00 1980252
 1980 253   252    4.9   11.6   12.5   18.3   36.6   0.18   20.5    9.3   14.6   16.8   10.1   14.6   16.8    2.4  338.9   0.00   0.00 -99.00 1980253
 1980 254   253    0.0   11.7   12.6   18.7   37.4   0.16   20.2    6.3   12.9   15.6    4.5   12.9   15.6    1.2  338.9   0.00   0.00 -99.00 1980254
 1980 255   254    0.0   11.7   12.6   19.7   39.4   0.13   23.9    8.6   15.9   18.9    8.2   15.9   18.9    1.0  338.9   0.00   0.00 -99.00 1980255
 1980 256   255    0.0   11.7   12.6   18.5   37.0   0.19   24.8   11.5   17.8   20.5   12.4   17.8   20.5    2.5  338.9   0.00   0.00 -99.00 1980256
 1980 257   256    0.0   11.8   12.7   17.4   34.8   0.24   29.4   16.0   22.4   25.0   15.7   22.4   25.0    3.2  338.9   0.00   0.00 -99.00 1980257
 1980 258   257    0.6   11.8   12.7    9.5   19.0   0.59   27.6   18.6   22.9   24.7   20.4   22.9   24.7    2.3  338.9   0.00   0.00 -99.00 1980258
 1980 259   258    4.3   11.8   12.8   10.1   20.2   0.57   17.5    9.5   13.3   14.9    8.8   13.3   14.9    3.3  339.0   0.00   0.00 -99.00 1980259
 1980 260   259    0.1   11.9   12.8   19.6   39.2   0.16   14.6    7.9   11.1   12.4    4.0   11.1   12.4    3.7  339.0   0.00   0.00 -99.00 1980260
 1980 261   260    2.6   11.9   12.8   21.2   42.4   0.10   17.7    4.5   10.8   13.4    5.9   10.8   13.4    1.8  339.0   0.00   0.00 -99.00 1980261
 1980 262   261    0.0   11.9   12.9   16.0   32.0   0.33   20.8    8.6   14.4   16.9    5.1   14.4   16.9    1.1  339.0   0.00   0.00 -99.00 1980262
 1980 263   262    0.0   12.0   12.9   13.7   27.4   0.43   22.9   11.5   16.9   19.2   12.0   16.9   19.2    1.7  339.0   0.00   0.00 -99.00 1980263
 1980 264   263    0.0   12.0   12.9   17.3   34.6   0.28   24.0   12.2   17.8   19.8   10.1   17.8   19.8    1.5  339.0   0.00   0.00 -99.00 1980264
 1980 265   264    0.0   12.0   13.0   16.8   33.6   0.31   20.5   10.5   15.3   16.9    6.6   15.3   16.9    2.4  339.0   0.00   0.00 -99.00 1980265
 1980 266   265    0.0   12.1   13.0   22.1   44.2   0.10   18.3    6.7   12.3   14.2    3.8   12.3   14.2    1.8  339.0   0.00   0.00 -99.00 1980266
 1980 267   266    0.0   12.1   13.0   21.5   43.0   0.13   21.5    5.5   13.2   15.8    4.1   13.2   15.8    1.6  339.0   0.00   0.00 -99.00 1980267
 1980 268   267    0.0   12.2   13.1   21.9   43.8   0.12   21.8    7.1   14.2   16.6    4.6   14.2   16.6    1.9  339.0   0.00   0.00 -99.00 1980268
 1980 269   268    0.0   12.2   13.1   21.6   43.2   0.14   19.1    7.3   13.0   14.9    5.3   13.0   14.9    3.2  339.0   0.00   0.00 -99.00 1980269
 1980 270   269    0.0   12.2   13.1   23.0   46.0   0.09   22.9    9.6   16.0   18.2    7.6   16.0   18.2    4.4  339.0   0.00   0.00 -99.00 1980270
 1980 271   270    0.0   12.3   13.2   10.3   20.6   0.59   19.7   11.4   15.4   16.8    7.9   15.4   16.8    3.2  339.0   0.00   0.00 -99.00 1980271
 1980 272   271    0.0   12.3   13.2    8.6   17.2   0.66   16.6   12.0   14.2   15.0   12.9   14.2   15.0    1.4  339.0   0.00   0.00 -99.00 1980272
 1980 273   272    5.4   12.3   13.3   16.8   33.6   0.35   22.4   11.8   16.9   18.7   11.9   16.9   18.7    1.6  339.0   0.00   0.00 -99.00 1980273
 1980 274   273    0.0   12.4   13.3   20.5   41.0   0.21   30.6   14.9   22.5   25.1   15.9   22.5   25.1    2.7  339.0   0.00   0.00 -99.00 1980274
 1980 275   274    2.2   12.4   13.3   19.4   38.8   0.26   30.2   17.2   23.5   25.7   17.0   23.5   25.7    4.2  339.0   0.00   0.00 -99.00 1980275
 1980 276   275   18.8   12.4   13.4   10.8   21.6   0.59   26.7   19.4   22.9   24.2   20.1   22.9   24.2    2.9  339.0   0.00   0.00 -99.00 1980276
 1980 277   276   19.5   12.5   13.4    9.1   18.2   0.66   22.8   18.1   20.4   21.2   19.5   20.4   21.2    2.2  339.0   0.00   0.00 -99.00 1980277
 1980 278   277   54.9   12.5   13.4    8.9   17.8   0.66   18.7   11.4   14.9   16.2   10.6   14.9   16.2    3.0  339.0   0.00   0.00 -99.00 1980278
 1980 279   278    0.1   12.5   13.5   22.2   44.4   0.17   17.4    9.2   13.2   14.6    7.7   13.2   14.6    3.6  339.0   0.00   0.00 -99.00 1980279
 1980 280   279    0.0   12.6   13.5   20.0   40.0   0.26   16.7    7.6   12.0   13.6    6.0   12.0   13.6    3.5  339.0   0.00   0.00 -99.00 1980280
 1980 281   280    0.0   12.6   13.5   20.0   40.0   0.26   21.4    8.9   15.0   17.1    7.6   15.0   17.1    4.5  339.0   0.00   0.00 -99.00 1980281
 1980 282   281    1.7   12.6   13.6   10.6   21.2   0.61   17.9   13.3   15.5   16.3   14.1   15.5   16.3    1.9  339.0   0.00   0.00 -99.00 1980282
 1980 283   282    3.7   12.7   13.6   16.6   33.2   0.39   22.1   13.1   17.5   19.0   14.3   17.5   19.0    1.7  339.0   0.00   0.00 -99.00 1980283
 1980 284   283    0.3   12.7   13.7   17.1   34.2   0.38   22.2   14.3   18.2   19.5   14.4   18.2   19.5    3.6  339.0   0.00   0.00 -99.00 1980284
 1980 285   284    0.0   12.8   13.7   10.9   21.8   0.61   20.4   15.5   17.9   18.7   14.0   17.9   18.7    4.5  339.0   0.00   0.00 -99.00 1980285
 1980 286   285    0.0   12.8   13.7   15.4   30.8   0.45   22.4   15.1   18.7   19.9   14.8   18.7   19.9    3.4  339.0   0.00   0.00 -99.00 1980286
 1980 287   286    0.0   12.8   13.8   21.8   43.6   0.22   23.7   14.2   18.9   20.5   13.7   18.9   20.5    2.8  339.0   0.00   0.00 -99.00 1980287
 1980 288   287    0.0   12.9   13.8   23.7   47.4   0.16   26.7   14.9   20.7   22.7   15.2   20.7   22.7    2.5  339.0   0.00   0.00 -99.00 1980288
 1980 289   288    0.0   12.9   13.8   23.0   46.0   0.19   26.7   14.8   20.6   22.7   14.8   20.6   22.7    2.0  339.1   0.00   0.00 -99.00 1980289
 1980 290   289    0.0   12.9   13.9   23.3   46.6   0.18   28.3   16.1   22.1   24.2   15.7   22.1   24.2    2.1  339.1   0.00   0.00 -99.00 1980290
 1980 291   290    0.0   13.0   13.9   19.3   38.6   0.32   31.8   17.6   24.6   27.1   18.2   24.6   27.1    2.0  339.1   0.00   0.00 -99.00 1980291
 1980 292   291    0.0   13.0   13.9    9.7   19.4   0.66   27.4   18.5   22.9   24.4   20.3   22.9   24.4    1.7  339.1   0.00   0.00 -99.00 1980292
 1980 293   292    0.2   13.0   14.0   12.5   25.0   0.57   25.5   17.6   21.5   22.9   19.8   21.5   22.9    1.7  339.1   0.00   0.00 -99.00 1980293
 1980 294   293    1.1   13.1   14.0    9.7   19.4   0.66   23.6   18.5   21.0   21.9   19.3   21.0   21.9    1.6  339.1   0.00   0.00 -99.00 1980294
 1980 295   294    0.0   13.1   14.0   12.4   24.8   0.57   24.4   19.2   21.8   22.7   20.0   21.8   22.7    1.4  339.1   0.00   0.00 -99.00 1980295
 1980 296   295    1.8   13.1   14.1   14.3   28.6   0.51   22.6   13.6   18.1   19.6   11.5   18.1   19.6    4.1  339.1   0.00   0.00 -99.00 1980296
 1980 297   296    0.0   13.1   14.1   19.7   39.4   0.33   20.4   11.3   15.8   17.4    9.0   15.8   17.4    3.7  339.1   0.00   0.00 -99.00 1980297
 1980 298   297    0.0   13.2   14.2   24.1   48.2   0.18   19.6    8.9   14.2   16.1    7.2   14.2   16.1    3.2  339.1   0.00   0.00 -99.00 1980298
 1980 299   298    0.0   13.2   14.2   20.4   40.8   0.31   26.3   14.6   20.4   22.5   14.7   20.4   22.5    1.1  339.1   0.00   0.00 -99.00 1980299
 1980 300   299    0.8   13.2   14.2   14.9   29.8   0.50   30.2   19.8   25.0   26.8   21.8   25.0   26.8    1.0  339.1   0.00   0.00 -99.00 1980300
 1980 301   300    3.0   13.3   14.3    9.9   19.8   0.67   25.2   20.6   22.9   23.7   21.4   22.9   23.7    1.5  339.1   0.00   0.00 -99.00 1980301
 1980 302   301    0.0   13.3   14.3   19.9   39.8   0.34   29.3   18.8   24.0   25.9   18.1   24.0   25.9    1.4  339.1   0.00   0.00 -99.00 1980302
 1980 303   302   10.5   13.3   14.3   17.5   35.0   0.42   27.5   18.2   22.8   24.5   19.9   22.8   24.5    2.1  339.1   0.00   0.00 -99.00 1980303
 1980 304   303    3.5   13.4   14.4   19.1   38.2   0.37   22.8   15.5   19.1   20.4   11.2   19.1   20.4    3.0  339.1   0.00   0.00 -99.00 1980304
 1980 305   304    3.3   13.4   14.4   28.1   56.2   0.07   20.8   11.8   16.3   17.9    6.5   16.3   17.9    1.7  339.1   0.00   0.00 -99.00 1980305
 1980 306   305    0.0   13.4   14.4   28.6   57.2   0.06   23.8    9.9   16.8   19.3    7.5   16.8   19.3    2.4  339.1   0.00   0.00 -99.00 1980306
 1980 307   306    0.0   13.5   14.5   28.0   56.0   0.08   27.3   13.0   20.1   22.7   12.9   20.1   22.7    2.9  339.1   0.00   0.00 -99.00 1980307
 1980 308   307    0.0   13.5   14.5   27.4   54.8   0.11   31.2   15.6   23.4   26.2   16.7   23.4   26.2    1.8  339.1   0.00   0.00 -99.00 1980308
 1980 309   308    0.0   13.5   14.5   26.7   53.4   0.13   29.1   18.4   23.8   25.7   17.5   23.8   25.7    2.2  339.1   0.00   0.00 -99.00 1980309
 1980 310   309    3.6   13.5   14.5   14.2   28.4   0.54   29.0   19.1   24.1   25.9   20.7   24.1   25.9    1.7  339.1   0.00   0.00 -99.00 1980310
 1980 311   310    1.2   13.6   14.6   10.3   20.6   0.67   22.3   18.6   20.5   21.1   18.9   20.5   21.1    2.0  339.1   0.00   0.00 -99.00 1980311
 1980 312   311    0.2   13.6   14.6   18.3   36.6   0.41   26.6   16.9   21.8   23.5   17.9   21.8   23.5    1.3  339.1   0.00   0.00 -99.00 1980312
 1980 313   312    1.4   13.6   14.6   16.7   33.4   0.46   24.9   15.7   20.3   22.0   16.9   20.3   22.0    2.8  339.1   0.00   0.00 -99.00 1980313
 1980 314   313    4.5   13.6   14.7   15.4   30.8   0.51   21.6   16.2   18.9   19.9   15.9   18.9   19.9    2.6  339.1   0.00   0.00 -99.00 1980314
 1980 315   314    5.7   13.7   14.7   14.6   29.2   0.53   21.0   13.1   17.1   18.5   12.6   17.1   18.5    1.4  339.1   0.00   0.00 -99.00 1980315
 1980 316   315    0.5   13.7   14.7   22.5   45.0   0.28   22.8   12.9   17.9   19.7   11.5   17.9   19.7    1.3  339.1   0.00   0.00 -99.00 1980316
 1980 317   316    0.0   13.7   14.8   26.4   52.8   0.16   24.0   12.8   18.4   20.5   10.7   18.4   20.5    1.3  339.1   0.00   0.00 -99.00 1980317
 1980 318   317    3.6   13.7   14.8   28.8   57.6   0.09   25.0   13.2   19.1   21.3   11.3   19.1   21.3    3.2  339.1   0.00   0.00 -99.00 1980318
 1980 319   318    0.0   13.8   14.8   28.5   57.0   0.10   30.6   15.4   23.1   25.9   14.3   23.1   25.9    1.8  339.1   0.00   0.00 -99.00 1980319
 1980 320   319    4.0   13.8   14.8   26.5   53.0   0.16   31.2   18.3   24.8   27.2   17.5   24.8   27.2    1.9  339.3   0.00   0.00 -99.00 1980320
 1980 321   320    5.8   13.8   14.9   18.5   37.0   0.42   29.7   19.9   24.8   26.6   17.5   24.8   26.6    3.1  339.3   0.00   0.00 -99.00 1980321
 1980 322   321    0.0   13.8   14.9   25.6   51.2   0.20   24.4   13.3   18.9   21.0   10.7   18.9   21.0    4.0  339.3   0.00   0.00 -99.00 1980322
 1980 323   322    0.3   13.9   14.9   17.9   35.8   0.44   27.6   17.1   22.4   24.3   16.6   22.4   24.3    3.7  339.3   0.00   0.00 -99.00 1980323
 1980 324   323    1.2   13.9   14.9   18.7   37.4   0.42   27.2   18.5   22.9   24.5   19.6   22.9   24.5    2.2  339.3   0.00   0.00 -99.00 1980324
 1980 325   324    0.3   13.9   15.0   14.6   29.2   0.54   28.5   18.9   23.8   25.5   18.9   23.8   25.5    1.4  339.3   0.00   0.00 -99.00 1980325
 1980 326   325    0.5   13.9   15.0   13.7   27.4   0.57   25.5   18.4   22.0   23.3   19.2   22.0   23.3    3.5  339.3   0.00   0.00 -99.00 1980326
 1980 327   326    5.1   13.9   15.0   11.3   22.6   0.65   26.7   21.7   24.2   25.2   22.8   24.2   25.2    1.6  339.3   0.00   0.00 -99.00 1980327
 1980 328   327    5.2   14.0   15.0   21.3   42.6   0.34   24.6   18.1   21.4   22.6   16.2   21.4   22.6    2.6  339.3   0.00   0.00 -99.00 1980328
 1980 329   328    0.0   14.0   15.1   30.2   60.4   0.07   26.5   12.5   19.6   22.2    9.9   19.6   22.2    1.3  339.3   0.00   0.00 -99.00 1980329
 1980 330   329    0.0   14.0   15.1   28.9   57.8   0.11   25.0   14.4   19.8   21.3   12.0   19.8   21.3    2.4  339.3   0.00   0.00 -99.00 1980330
 1980 331   330    0.0   14.0   15.1   20.4   40.8   0.37   25.2   12.0   18.7   20.6   10.8   18.7   20.6    2.4  339.3   0.00   0.00 -99.00 1980331
 1980 332   331    0.0   14.0   15.1   24.8   49.6   0.24   29.3   16.8   23.2   25.0   16.4   23.2   25.0    3.2  339.3   0.00   0.00 -99.00 1980332
 1980 333   332    0.0   14.1   15.1   10.9   21.8   0.67   24.7   19.6   22.2   22.9   18.7   22.2   22.9    2.1  339.3   0.00   0.00 -99.00 1980333
 1980 334   333   11.4   14.1   15.1   16.7   33.4   0.49   26.0   19.6   22.9   23.8   20.0   22.9   23.8    2.2  339.3   0.00   0.00 -99.00 1980334
 1980 335   334   12.2   14.1   15.2   19.5   39.0   0.40   28.4   20.7   24.6   25.7   21.3   24.6   25.7    2.3  339.3   0.00   0.00 -99.00 1980335
 1980 336   335    0.8   14.1   15.2   17.2   34.4   0.47   28.0   19.8   24.0   25.2   20.6   24.0   25.2    3.1  339.3   0.00   0.00 -99.00 1980336
 1980 337   336    1.8   14.1   15.2   13.4   26.8   0.59   26.9   20.9   24.0   24.8   21.5   24.0   24.8    2.1  339.3   0.00   0.00 -99.00 1980337
 1980 338   337    3.2   14.1   15.2   13.6   27.2   0.58   25.1   20.1   22.6   23.4   21.5   22.6   23.4    2.1  339.3   0.00   0.00 -99.00 1980338
 1980 339   338    3.4   14.1   15.2   21.1   42.2   0.36   25.4   19.6   22.6   23.4   19.3   22.6   23.4    3.2  339.3   0.00   0.00 -99.00 1980339
 1980 340   339    0.0   14.2   15.2   23.7   47.4   0.28   26.3   18.2   22.3   23.5   17.6   22.3   23.5    2.1  339.3   0.00   0.00 -99.00 1980340
 1980 341   340    0.0   14.2   15.3   28.3   56.6   0.14   29.5   17.6   23.7   25.4   15.8   23.7   25.4    1.2  339.3   0.00   0.00 -99.00 1980341
 1980 342   341    0.0   14.2   15.3   26.8   53.6   0.19   29.7   17.7   23.8   25.6   17.6   23.8   25.6    1.4  339.3   0.00   0.00 -99.00 1980342
 1980 343   342    0.0   14.2   15.3   30.7   61.4   0.07   31.9   18.8   25.5   27.4   18.4   25.5   27.4    1.8  339.3   0.00   0.00 -99.00 1980343
 1980 344   343    0.0   14.2   15.3   29.2   58.4   0.11   33.9   20.5   27.3   29.3   19.8   27.3   29.3    2.2  339.3   0.00   0.00 -99.00 1980344
 1980 345   344    0.0   14.2   15.3   26.4   52.8   0.20   33.8   21.4   27.7   29.6   20.5   27.7   29.6    1.6  339.3   0.00   0.00 -99.00 1980345
 1980 346   345    6.3   14.2   15.3   17.0   34.0   0.48   32.3   20.6   26.6   28.3   21.3   26.6   28.3    1.3  339.3   0.00   0.00 -99.00 1980346
 1980 347   346    4.1   14.2   15.3   27.5   55.0   0.17   27.9   19.9   24.0   25.2   19.6   24.0   25.2    2.7  339.3   0.00   0.00 -99.00 1980347
 1980 348   347    3.8   14.2   15.3   26.4   52.8   0.20   29.1   19.4   24.4   25.8   19.7   24.4   25.8    3.0  339.3   0.00   0.00 -99.00 1980348
 1980 349   348   13.1   14.2   15.3   28.0   56.0   0.15   28.7   18.1   23.5   25.1   16.5   23.5   25.1    3.1  339.3   0.00   0.00 -99.00 1980349
 1980 350   349    2.6   14.2   15.3   26.9   53.8   0.19   29.5   18.6   24.2   25.8   15.6   24.2   25.8    3.0  339.4   0.00   0.00 -99.00 1980350
 1980 351   350    0.0   14.2   15.3   29.6   59.2   0.10   28.4   18.1   23.4   24.9   13.2   23.4   24.9    2.3  339.4   0.00   0.00 -99.00 1980351
 1980 352   351    0.0   14.2   15.3   15.6   31.2   0.53   27.5   17.9   22.8   24.2   18.6   22.8   24.2    1.8  339.4   0.00   0.00 -99.00 1980352
 1980 353   352   50.9   14.2   15.4   14.1   28.2   0.57   25.1   20.3   22.8   23.5   19.7   22.8   23.5    2.9  339.4   0.00   0.00 -99.00 1980353
 1980 354   353   38.8   14.2   15.4   18.1   36.2   0.45   24.0   16.9   20.5   21.6   16.2   20.5   21.6    2.6  339.4   0.00   0.00 -99.00 1980354
 1980 355   354    0.0   14.2   15.4   21.5   43.0   0.35   23.9   16.1   20.1   21.2   13.0   20.1   21.2    2.7  339.4   0.00   0.00 -99.00 1980355
 1980 356   355    0.0   14.2   15.4   26.7   53.4   0.19   23.8   15.0   19.5   20.8   11.7   19.5   20.8    2.2  339.4   0.00   0.00 -99.00 1980356
 1980 357   356    0.0   14.2   15.4   29.0   58.0   0.12   24.9   15.2   20.2   21.6   12.0   20.2   21.6    2.5  339.4   0.00   0.00 -99.00 1980357
 1980 358   357    0.0   14.2   15.4   24.5   49.0   0.26   26.8   16.8   21.9   23.4   15.7   21.9   23.4    2.6  339.4   0.00   0.00 -99.00 1980358
 1980 359   358    0.0   14.2   15.4   28.2   56.4   0.15   28.0   17.2   22.7   24.3   17.7   22.7   24.3    2.1  339.4   0.00   0.00 -99.00 1980359
 1980 360   359    0.0   14.2   15.4   29.5   59.0   0.11   28.8   18.6   23.8   25.3   17.8   23.8   25.3    2.8  339.4   0.00   0.00 -99.00 1980360
 1980 361   360    0.0   14.2   15.3   22.5   45.0   0.32   29.2   19.2   24.3   25.8   19.3   24.3   25.8    2.6  339.4   0.00   0.00 -99.00 1980361
 1980 362   361    0.0   14.2   15.3   14.0   28.0   0.58   27.2   19.6   23.5   24.6   20.3   23.5   24.6    2.3  339.4   0.00   0.00 -99.00 1980362
 1980 363   362    0.0   14.2   15.3   17.8   35.6   0.46   28.0   20.0   24.1   25.3   20.7   24.1   25.3    2.0  339.4   0.00   0.00 -99.00 1980363
 1980 364   363    0.0   14.2   15.3   23.5   47.0   0.29   29.6   21.7   25.7   26.9   21.4   25.7   26.9    2.0  339.4   0.00   0.00 -99.00 1980364
 1980 365   364    0.0   14.2   15.3   27.5   55.0   0.17   29.6   21.3   25.5   26.8   19.9   25.5   26.8    3.2  339.4   0.00   0.00 -99.00 1980365
 1980 366   365    0.0   14.2   15.3   25.2   50.4   0.24   30.4   20.7   25.7   27.1   19.8   25.7   27.1    2.8  339.4   0.00   0.00 -99.00 1980366
 1981 001   366    0.0   14.2   15.3   24.0   48.0   0.27   33.0   21.3   27.3   29.0   20.5   27.3   29.0    2.0  339.4   0.00   0.00 -99.00 1981001
 1981 002   367    0.0   14.2   15.3   21.8   43.6   0.34   29.8   20.1   25.1   26.5   20.4   25.1   26.5    3.3  339.4   0.00   0.00 -99.00 1981002
 1981 003   368   21.5   14.2   15.3   17.3   34.6   0.47   28.2   21.6   25.0   25.9   20.7   25.0   25.9    3.5  339.4   0.00   0.00 -99.00 1981003
 1981 004   369    1.2   14.2   15.3   29.5   59.0   0.10   29.7   17.7   23.8   25.6   15.2   23.8   25.6    1.7  339.4   0.00   0.00 -99.00 1981004
 1981 005   370    0.0   14.2   15.3   29.8   59.6   0.09   33.1   19.0   26.2   28.3   17.0   26.2   28.3    2.4  339.4   0.00   0.00 -99.00 1981005
 1981 006   371    0.1   14.1   15.3   12.2   24.4   0.63   29.4   20.7   25.1   26.4   21.3   25.1   26.4    3.4  339.4   0.00   0.00 -99.00 1981006
 1981 007   372    0.3   14.1   15.2   29.1   58.2   0.11   28.0   19.4   23.8   25.0   17.3   23.8   25.0    2.7  339.4   0.00   0.00 -99.00 1981007
 1981 008   373    0.0   14.1   15.2   28.7   57.4   0.12   29.8   16.8   23.4   25.3   14.0   23.4   25.3    2.1  339.4   0.00   0.00 -99.00 1981008
 1981 009   374    0.0   14.1   15.2   29.8   59.6   0.09   30.4   17.4   24.0   25.9   16.6   24.0   25.9    2.3  339.4   0.00   0.00 -99.00 1981009
 1981 010   375    0.0   14.1   15.2   19.8   39.6   0.39   29.9   18.7   24.4   26.0   18.7   24.4   26.0    2.7  339.4   0.00   0.00 -99.00 1981010
 1981 011   376    0.1   14.1   15.2   19.6   39.2   0.40   30.9   21.0   26.0   27.5   21.7   26.0   27.5    1.8  339.4   0.00   0.00 -99.00 1981011
 1981 012   377   10.9   14.1   15.2   20.1   40.2   0.38   30.5   22.5   26.6   27.7   21.6   26.6   27.7    1.8  339.4   0.00   0.00 -99.00 1981012
 1981 013   378   15.1   14.0   15.2   24.6   49.2   0.24   29.6   20.6   25.2   26.5   19.4   25.2   26.5    2.3  339.4   0.00   0.00 -99.00 1981013
 1981 014   379    1.4   14.0   15.1   28.2   56.4   0.13   29.9   19.1   24.6   26.2   16.9   24.6   26.2    3.2  339.4   0.00   0.00 -99.00 1981014
 1981 015   380    0.0   14.0   15.1   24.1   48.2   0.26   27.0   17.8   22.5   23.8   15.5   22.5   23.8    2.9  339.5   0.00   0.00 -99.00 1981015
 1981 016   381    0.3   14.0   15.1   24.7   49.4   0.24   29.9   18.9   24.5   26.5   18.0   24.5   26.5    3.8  339.5   0.00   0.00 -99.00 1981016
 1981 017   382    4.7   14.0   15.1   19.2   38.4   0.41   30.9   22.3   26.7   28.3   22.7   26.7   28.3    1.6  339.5   0.00   0.00 -99.00 1981017
 1981 018   383    0.3   13.9   15.1   22.7   45.4   0.30   31.2   22.2   26.8   28.4   21.4   26.8   28.4    1.4  339.5   0.00   0.00 -99.00 1981018
 1981 019   384    1.5   13.9   15.0   16.9   33.8   0.47   29.2   20.7   25.0   26.6   22.1   25.0   26.6    2.8  339.5   0.00   0.00 -99.00 1981019
 1981 020   385    1.2   13.9   15.0   21.2   42.4   0.34   30.0   21.4   25.8   27.3   20.1   25.8   27.3    3.0  339.5   0.00   0.00 -99.00 1981020
 1981 021   386    0.0   13.9   15.0   28.7   57.4   0.10   25.3   17.8   21.6   23.0   12.0   21.6   23.0    2.2  339.5   0.00   0.00 -99.00 1981021
 1981 022   387    0.0   13.9   15.0   28.2   56.4   0.12   27.2   15.0   21.2   23.4   11.5   21.2   23.4    2.0  339.5   0.00   0.00 -99.00 1981022
 1981 023   388    0.0   13.8   14.9   24.7   49.4   0.23   30.1   17.2   23.7   26.1   18.6   23.7   26.1    2.5  339.5   0.00   0.00 -99.00 1981023
 1981 024   389    2.5   13.8   14.9   24.7   49.4   0.22   32.6   20.7   26.7   28.9   21.9   26.7   28.9    2.3  339.5   0.00   0.00 -99.00 1981024
 1981 025   390    0.0   13.8   14.9   15.9   31.8   0.50   30.8   21.8   26.3   28.0   21.8   26.3   28.0    2.2  339.5   0.00   0.00 -99.00 1981025
 1981 026   391    0.0   13.8   14.9   17.5   35.0   0.45   30.0   22.7   26.4   27.7   22.2   26.4   27.7    3.0  339.5   0.00   0.00 -99.00 1981026
 1981 027   392    0.0   13.7   14.8   26.4   52.8   0.16   33.3   23.0   28.2   30.1   22.4   28.2   30.1    2.7  339.5   0.00   0.00 -99.00 1981027
 1981 028   393    2.1   13.7   14.8   15.8   31.6   0.50   33.5   24.3   28.9   30.6   24.9   28.9   30.6    2.7  339.5   0.00   0.00 -99.00 1981028
 1981 029   394    2.4   13.7   14.8   15.9   31.8   0.49   30.2   21.7   26.0   27.5   21.4   26.0   27.5    2.3  339.5   0.00   0.00 -99.00 1981029
 1981 030   395    0.0   13.7   14.8   26.1   52.2   0.17   27.0   18.4   22.7   24.3   16.2   22.7   24.3    2.5  339.5   0.00   0.00 -99.00 1981030
 1981 031   396    0.0   13.6   14.7   20.9   41.8   0.33   29.0   17.7   23.4   25.4   18.7   23.4   25.4    2.5  339.5   0.00   0.00 -99.00 1981031
 1981 032   397    9.6   13.6   14.7   18.2   36.4   0.42   33.2   22.5   27.9   29.8   24.4   27.9   29.8    2.1  339.5   0.00   0.00 -99.00 1981032
 1981 033   398   10.6   13.6   14.7   21.6   43.2   0.30   32.1   22.8   27.5   29.2   22.5   27.5   29.2    1.5  339.5   0.00   0.00 -99.00 1981033
 1981 034   399    0.5   13.6   14.6   21.4   42.8   0.31   31.5   21.5   26.5   28.3   23.3   26.5   28.3    1.5  339.5   0.00   0.00 -99.00 1981034
 1981 035   400    0.0   13.5   14.6   18.1   36.2   0.41   24.9   19.2   22.1   23.1   17.2   22.1   23.1    3.8  339.5   0.00   0.00 -99.00 1981035
 1981 036   401    0.0   13.5   14.6   26.3   52.6   0.14   25.3   15.8   20.6   22.3   14.0   20.6   22.3    2.5  339.5   0.00   0.00 -99.00 1981036
 1981 037   402    0.0   13.5   14.5   18.2   36.4   0.41   27.2   16.6   21.9   23.8   16.3   21.9   23.8    4.0  339.5   0.00   0.00 -99.00 1981037
 1981 038   403    0.7   13.5   14.5   25.8   51.6   0.15   31.4   19.6   25.5   27.6   20.4   25.5   27.6    2.6  339.5   0.00   0.00 -99.00 1981038
 1981 039   404    0.0   13.4   14.5   18.2   36.4   0.40   32.9   21.8   27.3   29.3   22.4   27.3   29.3    2.2  339.5   0.00   0.00 -99.00 1981039
 1981 040   405    2.6   13.4   14.5   14.6   29.2   0.52   28.2   21.5   24.8   26.0   21.1   24.8   26.0    1.8  339.5   0.00   0.00 -99.00 1981040
 1981 041   406    0.2   13.4   14.4   10.8   21.6   0.64   25.9   20.6   23.2   24.2   21.6   23.2   24.2    1.3  339.5   0.00   0.00 -99.00 1981041
 1981 042   407    0.0   13.3   14.4   20.6   41.2   0.31   32.4   22.6   27.5   29.2   24.3   27.5   29.2    0.8  339.5   0.00   0.00 -99.00 1981042
 1981 043   408    2.7   13.3   14.4   19.6   39.2   0.35   33.2   23.4   28.3   30.0   24.8   28.3   30.0    1.8  339.5   0.00   0.00 -99.00 1981043
 1981 044   409   15.5   13.3   14.3   17.3   34.6   0.42   29.6   21.5   25.5   27.0   21.5   25.5   27.0    2.5  339.5   0.00   0.00 -99.00 1981044
 1981 045   410    2.3   13.2   14.3   10.2   20.4   0.66   24.0   17.5   20.7   21.9   18.8   20.7   21.9    3.4  339.6   0.00   0.00 -99.00 1981045
 1981 046   411   11.1   13.2   14.3   17.5   35.0   0.41   31.1   21.2   26.1   27.9   23.6   26.1   27.9    2.6  339.6   0.00   0.00 -99.00 1981046
 1981 047   412    9.6   13.2   14.2   14.2   28.4   0.52   28.1   20.1   24.1   25.5   20.5   24.1   25.5    1.5  339.6   0.00   0.00 -99.00 1981047
 1981 048   413    1.6   13.1   14.2   22.8   45.6   0.22   33.6   21.7   27.6   29.7   22.8   27.6   29.7    1.4  339.6   0.00   0.00 -99.00 1981048
 1981 049   414    2.8   13.1   14.2   22.6   45.2   0.23   33.8   22.9   28.3   30.2   24.5   28.3   30.2    1.9  339.6   0.00   0.00 -99.00 1981049
 1981 050   415    3.4   13.1   14.1   16.1   32.2   0.45   28.5   21.1   24.8   26.1   22.0   24.8   26.1    1.7  339.6   0.00   0.00 -99.00 1981050
 1981 051   416    0.0   13.1   14.1   17.6   35.2   0.39   29.9   21.7   25.8   27.2   22.8   25.8   27.2    1.8  339.6   0.00   0.00 -99.00 1981051
 1981 052   417    0.0   13.0   14.1   26.8   53.6   0.07   31.3   21.2   26.2   28.0   21.1   26.2   28.0    2.7  339.6   0.00   0.00 -99.00 1981052
 1981 053   418    0.0   13.0   14.0   25.4   50.8   0.11   31.7   22.2   26.9   28.6   21.8   26.9   28.6    2.6  339.6   0.00   0.00 -99.00 1981053
 1981 054   419    0.0   13.0   14.0   25.2   50.4   0.12   32.0   21.8   26.8   28.6   21.8   26.8   28.6    2.4  339.6   0.00   0.00 -99.00 1981054
 1981 055   420    0.0   12.9   13.9   26.6   53.2   0.06   32.8   22.5   27.6   29.4   22.3   27.6   29.4    2.1  339.6   0.00   0.00 -99.00 1981055
 1981 056   421    0.0   12.9   13.9   25.7   51.4   0.09   33.9   22.9   28.3   30.2   22.1   28.3   30.2    1.7  339.6   0.00   0.00 -99.00 1981056
 1981 057   422    0.9   12.9   13.9   22.7   45.4   0.19   33.6   23.1   28.3   30.1   21.9   28.3   30.1    1.8  339.6   0.00   0.00 -99.00 1981057
 1981 058   423    7.6   12.8   13.8   25.4   50.8   0.09   34.9   24.1   29.4   31.3   22.9   29.4   31.3    1.5  339.6   0.00   0.00 -99.00 1981058
 1981 059   424    9.9   12.8   13.8   17.3   34.6   0.38   29.8   22.9   26.3   27.5   22.1   26.3   27.5    2.0  339.6   0.00   0.00 -99.00 1981059
 1981 060   425    0.0   12.8   13.8   22.1   44.2   0.20   29.6   18.1   23.7   25.7   17.6   23.7   25.7    1.6  339.6   0.00   0.00 -99.00 1981060
 1981 061   426    1.1   12.7   13.7   16.8   33.6   0.39   31.2   18.7   24.8   27.0   21.5   24.8   27.0    1.1  339.6   0.00   0.00 -99.00 1981061
 1981 062   427    9.3   12.7   13.7   11.4   22.8   0.58   26.0   19.9   22.9   23.9   19.8   22.9   23.9    3.0  339.6   0.00   0.00 -99.00 1981062
 1981 063   428    1.1   12.6   13.7   22.5   45.0   0.17   26.5   16.3   21.3   23.0   15.4   21.3   23.0    2.8  339.6   0.00   0.00 -99.00 1981063
 1981 064   429    0.0   12.6   13.6   21.0   42.0   0.22   29.5   17.0   23.1   25.2   18.9   23.1   25.2    1.7  339.6   0.00   0.00 -99.00 1981064
 1981 065   430    0.0   12.6   13.6   18.3   36.6   0.32   29.2   19.5   24.2   25.9   20.6   24.2   25.9    2.2  339.6   0.00   0.00 -99.00 1981065
 1981 066   431    0.0   12.5   13.6   13.5   27.0   0.49   25.9   19.6   22.7   23.7   18.7   22.7   23.7    3.0  339.6   0.00   0.00 -99.00 1981066
 1981 067   432    0.0   12.5   13.5   18.0   36.0   0.32   26.6   16.9   21.6   23.3   17.4   21.6   23.3    1.6  339.6   0.00   0.00 -99.00 1981067
 1981 068   433    0.0   12.5   13.5   23.1   46.2   0.12   28.1   16.5   22.1   24.1   16.4   22.1   24.1    1.4  339.6   0.00   0.00 -99.00 1981068
 1981 069   434    0.0   12.4   13.4   23.0   46.0   0.12   29.0   17.0   22.8   24.8   16.6   22.8   24.8    1.3  339.6   0.00   0.00 -99.00 1981069
 1981 070   435    0.4   12.4   13.4   19.1   38.2   0.27   29.2   18.8   23.8   25.6   19.1   23.8   25.6    1.5  339.6   0.00   0.00 -99.00 1981070
 1981 071   436    0.9   12.4   13.4   20.9   41.8   0.19   29.2   17.8   23.3   25.2   18.2   23.3   25.2    0.9  339.6   0.00   0.00 -99.00 1981071
 1981 072   437    3.1   12.3   13.3   19.5   39.0   0.24   29.4   17.8   23.4   25.3   18.8   23.4   25.3    1.5  339.6   0.00   0.00 -99.00 1981072
 1981 073   438    2.8   12.3   13.3   12.4   24.8   0.51   28.4   20.9   24.5   25.8   22.2   24.5   25.8    2.4  339.6   0.00   0.00 -99.00 1981073
 1981 074   439    6.8   12.3   13.3   21.8   43.6   0.14   27.7   16.9   22.1   23.9   17.2   22.1   23.9    1.1  339.7   0.00   0.00 -99.00 1981074
 1981 075   440    0.3   12.2   13.2   20.1   40.2   0.20   22.9   15.4   19.0   20.3   12.0   19.0   20.3    2.8  339.7   0.00   0.00 -99.00 1981075
 1981 076   441    0.0   12.2   13.2   22.6   45.2   0.10   23.4   11.8   17.4   19.3   10.1   17.4   19.3    1.6  339.7   0.00   0.00 -99.00 1981076
 1981 077   442    0.0   12.2   13.2   22.2   44.4   0.11   26.8   13.2   19.7   22.0   13.1   19.7   22.0    1.6  339.7   0.00   0.00 -99.00 1981077
 1981 078   443    0.1   12.1   13.1   14.1   28.2   0.43   25.6   16.3   20.8   22.3   17.5   20.8   22.3    1.9  339.7   0.00   0.00 -99.00 1981078
 1981 079   444    0.0   12.1   13.1   20.7   41.4   0.16   23.3   13.6   18.3   19.8   11.5   18.3   19.8    1.5  339.7   0.00   0.00 -99.00 1981079
 1981 080   445    0.0   12.0   13.0   22.0   44.0   0.10   24.1   11.4   17.5   19.6   11.4   17.5   19.6    1.6  339.7   0.00   0.00 -99.00 1981080
 1981 081   446    0.0   12.0   13.0   21.7   43.4   0.10   27.6   12.7   19.8   22.3   13.7   19.8   22.3    2.1  339.7   0.00   0.00 -99.00 1981081
 1981 082   447    0.0   12.0   13.0   19.1   38.2   0.20   30.4   16.0   22.9   25.8   17.8   22.9   25.8    1.5  339.7   0.00   0.00 -99.00 1981082
 1981 083   448    0.0   11.9   12.9   19.5   39.0   0.18   27.4   16.8   21.9   24.0   17.3   21.9   24.0    3.0  339.7   0.00   0.00 -99.00 1981083
 1981 084   449    0.0   11.9   12.9   20.2   40.4   0.15   26.7   14.1   20.1   22.6   14.7   20.1   22.6    1.7  339.7   0.00   0.00 -99.00 1981084
 1981 085   450    0.0   11.9   12.9   21.0   42.0   0.10   29.6   16.6   22.8   25.4   17.1   22.8   25.4    1.5  339.7   0.00   0.00 -99.00 1981085
 1981 086   451    0.0   11.8   12.8   19.8   39.6   0.15   29.7   17.5   23.3   25.7   19.3   23.3   25.7    2.9  339.7   0.00   0.00 -99.00 1981086
 1981 087   452    0.0   11.8   12.8   16.9   33.8   0.27   29.5   20.9   25.0   26.7   19.9   25.0   26.7    2.5  339.7   0.00   0.00 -99.00 1981087
 1981 088   453    1.0   11.8   12.8   12.1   24.2   0.47   28.8   18.7   23.5   25.5   20.4   23.5   25.5    1.5  339.7   0.00   0.00 -99.00 1981088
 1981 089   454   12.2   11.7   12.7   14.7   29.4   0.35   26.9   19.8   23.2   24.6   20.5   23.2   24.6    1.8  339.7   0.00   0.00 -99.00 1981089
 1981 090   455    6.3   11.7   12.7   10.5   21.0   0.53   25.5   18.1   21.6   23.1   18.9   21.6   23.1    2.3  339.7   0.00   0.00 -99.00 1981090
 1981 091   456    0.0   11.7   12.6   19.2   38.4   0.14   27.1   16.3   21.4   23.5   16.3   21.4   23.5    1.5  339.7   0.00   0.00 -99.00 1981091
 1981 092   457    0.0   11.6   12.6   18.5   37.0   0.17   27.3   14.6   20.6   23.1   15.6   20.6   23.1    1.7  339.7   0.00   0.00 -99.00 1981092
 1981 093   458    4.9   11.6   12.6   14.0   28.0   0.36   27.6   16.9   22.0   24.1   18.4   22.0   24.1    2.1  339.7   0.00   0.00 -99.00 1981093
 1981 094   459    0.0   11.5   12.5   17.9   35.8   0.18   25.8   15.6   20.4   22.4   15.7   20.4   22.4    1.4  339.7   0.00   0.00 -99.00 1981094
 1981 095   460    0.0   11.5   12.5   18.9   37.8   0.13   28.6   14.7   21.3   24.0   14.9   21.3   24.0    1.1  339.7   0.00   0.00 -99.00 1981095
 1981 096   461    0.0   11.5   12.5   18.0   36.0   0.16   28.3   16.1   21.9   24.2   15.8   21.9   24.2    1.9  339.7   0.00   0.00 -99.00 1981096
 1981 097   462    0.0   11.4   12.4   18.3   36.6   0.14   32.2   17.7   24.5   27.4   19.6   24.5   27.4    1.6  339.7   0.00   0.00 -99.00 1981097
 1981 098   463    0.0   11.4   12.4   16.3   32.6   0.23   30.2   18.9   24.2   26.4   19.9   24.2   26.4    2.4  339.7   0.00   0.00 -99.00 1981098
 1981 099   464    0.0   11.4   12.4   12.4   24.8   0.41   29.1   18.2   23.3   25.4   19.0   23.3   25.4    2.3  339.7   0.00   0.00 -99.00 1981099
 1981 100   465    0.4   11.3   12.3    8.8   17.6   0.58   26.4   19.6   22.8   24.1   19.6   22.8   24.1    1.8  339.7   0.00   0.00 -99.00 1981100
 1981 101   466    8.4   11.3   12.3    9.5   19.0   0.54   28.8   19.5   23.9   25.7   20.3   23.9   25.7    2.0  339.7   0.00   0.00 -99.00 1981101
 1981 102   467    8.8   11.3   12.3   11.3   22.6   0.45   28.0   20.2   23.9   25.4   20.1   23.9   25.4    0.9  339.7   0.00   0.00 -99.00 1981102
 1981 103   468    0.0   11.2   12.2   10.3   20.6   0.49   25.7   17.3   21.2   22.8   18.0   21.2   22.8    2.3  339.7   0.00   0.00 -99.00 1981103
 1981 104   469    0.1   11.2   12.2    7.8   15.6   0.61   23.9   16.9   20.2   21.5   16.8   20.2   21.5    3.0  339.7   0.00   0.00 -99.00 1981104
 1981 105   470    0.0   11.2   12.2   13.1   26.2   0.34   22.2   15.8   18.8   20.0   14.8   18.8   20.0    2.9  339.8   0.00   0.00 -99.00 1981105
 1981 106   471    0.0   11.1   12.1   16.5   33.0   0.16   23.3   12.9   17.8   19.7   12.4   17.8   19.7    2.7  339.8   0.00   0.00 -99.00 1981106
 1981 107   472    0.0   11.1   12.1   11.8   23.6   0.40   24.1   14.0   18.7   20.6   14.3   18.7   20.6    2.4  339.8   0.00   0.00 -99.00 1981107
 1981 108   473    0.0   11.1   12.1   16.4   32.8   0.15   26.2   13.3   19.3   21.7   13.4   19.3   21.7    1.9  339.8   0.00   0.00 -99.00 1981108
 1981 109   474    0.0   11.0   12.0   16.7   33.4   0.13   27.7   14.9   20.9   23.3   14.6   20.9   23.3    1.5  339.8   0.00   0.00 -99.00 1981109
 1981 110   475    0.0   11.0   12.0   14.9   29.8   0.22   27.9   14.8   20.9   23.4   15.6   20.9   23.4    1.2  339.8   0.00   0.00 -99.00 1981110
 1981 111   476    0.3   11.0   12.0   16.9   33.8   0.10   29.2   15.1   21.7   24.3   14.4   21.7   24.3    2.0  339.8   0.00   0.00 -99.00 1981111
 1981 112   477    6.7   10.9   11.9   11.6   23.2   0.38   28.7   17.2   22.5   24.7   18.4   22.5   24.7    2.8  339.8   0.00   0.00 -99.00 1981112
 1981 113   478   21.5   10.9   11.9   14.8   29.6   0.20   24.7   16.5   20.3   21.8   15.7   20.3   21.8    3.1  339.8   0.00   0.00 -99.00 1981113
 1981 114   479    0.0   10.9   11.9   11.0   22.0   0.40   21.1   12.5   16.5   18.1   11.0   16.5   18.1    1.7  339.8   0.00   0.00 -99.00 1981114
 1981 115   480    0.8   10.8   11.9    6.4   12.8   0.65   21.5   14.6   17.8   19.1   16.6   17.8   19.1    2.0  339.8   0.00   0.00 -99.00 1981115
 1981 116   481   39.8   10.8   11.8    9.8   19.6   0.46   23.3   16.9   19.9   21.0   17.3   19.9   21.0    2.1  339.8   0.00   0.00 -99.00 1981116
 1981 117   482    5.9   10.8   11.8   10.4   20.8   0.42   22.4   15.3   18.6   19.9   15.5   18.6   19.9    2.1  339.8   0.00   0.00 -99.00 1981117
 1981 118   483    0.0   10.7   11.8    7.4   14.8   0.58   19.4   14.8   16.9   17.8   16.0   16.9   17.8    1.8  339.8   0.00   0.00 -99.00 1981118
 1981 119   484    0.0   10.7   11.7   11.8   23.6   0.33   20.0   12.4   15.9   17.3   13.5   15.9   17.3    1.7  339.8   0.00   0.00 -99.00 1981119
 1981 120   485    0.0   10.7   11.7   14.4   28.8   0.17   22.0   11.1   16.1   18.1   11.9   16.1   18.1    0.8  339.8   0.00   0.00 -99.00 1981120
 1981 121   486    0.0   10.6   11.7   14.5   29.0   0.16   22.3   11.6   16.5   18.5   11.5   16.5   18.5    0.6  339.8   0.00   0.00 -99.00 1981121
 1981 122   487    0.0   10.6   11.6   14.5   29.0   0.15   24.9   11.6   17.7   20.1   12.6   17.7   20.1    1.9  339.8   0.00   0.00 -99.00 1981122
 1981 123   488    0.0   10.6   11.6    9.5   19.0   0.44   27.4   14.3   20.3   22.7   15.8   20.3   22.7    1.1  339.8   0.00   0.00 -99.00 1981123
 1981 124   489    0.0   10.6   11.6   14.0   28.0   0.17   28.2   16.2   21.7   23.9   18.6   21.7   23.9    1.6  339.8   0.00   0.00 -99.00 1981124
 1981 125   490    5.2   10.5   11.6   13.3   26.6   0.20   31.6   20.2   25.4   27.5   20.4   25.4   27.5    2.4  339.8   0.00   0.00 -99.00 1981125
 1981 126   491   28.2   10.5   11.5    7.4   14.8   0.55   25.9   19.9   22.7   23.7   19.8   22.7   23.7    1.7  339.8   0.00   0.00 -99.00 1981126
 1981 127   492    0.2   10.5   11.5   14.8   29.6   0.10   31.1   19.5   24.8   26.9   20.3   24.8   26.9    1.7  339.8   0.00   0.00 -99.00 1981127
 1981 128   493    0.0   10.4   11.5   15.1   30.2   0.07   31.1   19.8   25.0   27.0   18.9   25.0   27.0    2.0  339.8   0.00   0.00 -99.00 1981128
 1981 129   494    0.0   10.4   11.5    8.7   17.4   0.46   28.5   19.9   23.8   25.4   20.7   23.8   25.4    1.2  339.8   0.00   0.00 -99.00 1981129
 1981 130   495    2.9   10.4   11.4    9.8   19.6   0.39   28.2   19.2   23.3   24.9   20.1   23.3   24.9    1.2  339.8   0.00   0.00 -99.00 1981130
 1981 131   496   22.0   10.4   11.4    8.9   17.8   0.44   28.5   20.4   24.1   25.5   21.2   24.1   25.5    1.9  339.8   0.00   0.00 -99.00 1981131
 1981 132   497    7.2   10.3   11.4   11.4   22.8   0.27   30.4   19.7   24.6   26.5   18.9   24.6   26.5    1.7  339.8   0.00   0.00 -99.00 1981132
 1981 133   498    8.3   10.3   11.4    9.8   19.6   0.37   29.5   19.1   23.8   25.7   20.5   23.8   25.7    1.8  339.8   0.00   0.00 -99.00 1981133
 1981 134   499   25.1   10.3   11.3    7.9   15.8   0.49   23.4   16.8   19.8   21.0   18.0   19.8   21.0    2.5  339.8   0.00   0.00 -99.00 1981134
 1981 135   500   12.5   10.3   11.3    8.0   16.0   0.48   21.0   12.5   16.4   17.9   14.6   16.4   17.9    1.1  339.8   0.00   0.00 -99.00 1981135
 1981 136   501    0.2   10.2   11.3   14.1   28.2   0.07   25.2   12.0   18.0   20.3   14.7   18.0   20.3    1.9  339.8   0.00   0.00 -99.00 1981136
 1981 137   502    0.0   10.2   11.3   12.9   25.8   0.15   26.2   16.8   21.1   22.7   17.5   21.1   22.7    1.7  339.8   0.00   0.00 -99.00 1981137
 1981 138   503    2.6   10.2   11.2   11.4   22.8   0.24   28.0   17.5   22.3   24.1   18.4   22.3   24.1    1.4  339.8   0.00   0.00 -99.00 1981138
 1981 139   504    2.9   10.2   11.2   10.1   20.2   0.32   29.3   18.0   23.1   25.1   19.2   23.1   25.1    2.3  339.8   0.00   0.00 -99.00 1981139
 1981 140   505   25.4   10.1   11.2    8.7   17.4   0.41   19.5   12.4   15.6   16.8   11.6   15.6   16.8    2.2  339.8   0.00   0.00 -99.00 1981140
 1981 141   506    0.0   10.1   11.2   13.8   27.6   0.06   23.5   10.4   16.3   18.6   13.4   16.3   18.6    1.9  339.8   0.00   0.00 -99.00 1981141
 1981 142   507    0.0   10.1   11.2   11.1   22.2   0.24   27.0   15.6   20.8   22.7   18.0   20.8   22.7    1.4  339.8   0.00   0.00 -99.00 1981142
 1981 143   508    0.0   10.1   11.1   13.4   26.8   0.07   28.8   18.6   23.2   25.0   19.1   23.2   25.0    1.9  339.8   0.00   0.00 -99.00 1981143
 1981 144   509    3.5   10.1   11.1   13.6   27.2   0.05   28.6   17.4   22.5   24.4   18.0   22.5   24.4    2.2  339.8   0.00   0.00 -99.00 1981144
 1981 145   510   12.3   10.0   11.1    5.2   10.4   0.64   23.8   17.0   20.1   21.2   18.7   20.1   21.2    2.3  339.8   0.00   0.00 -99.00 1981145
 1981 146   511    0.0   10.0   11.1    6.2   12.4   0.56   19.2   13.9   16.3   17.2   14.2   16.3   17.2    3.8  339.8   0.00   0.00 -99.00 1981146
 1981 147   512    0.0   10.0   11.1   10.6   21.2   0.25   19.7   11.8   15.4   16.7   12.5   15.4   16.7    2.6  339.8   0.00   0.00 -99.00 1981147
 1981 148   513    0.0   10.0   11.1   13.3   26.6   0.05   23.2   12.7   17.4   19.6   14.9   17.4   19.6    1.4  339.8   0.00   0.00 -99.00 1981148
 1981 149   514    0.0   10.0   11.0   13.4   26.8   0.04   25.5   14.2   19.3   21.6   16.4   19.3   21.6    1.4  339.8   0.00   0.00 -99.00 1981149
 1981 150   515    0.0   10.0   11.0   12.6   25.2   0.09   26.1   13.6   19.2   21.8   15.3   19.2   21.8    1.2  339.8   0.00   0.00 -99.00 1981150
 1981 151   516    0.0    9.9   11.0   13.1   26.2   0.05   26.2   14.2   19.6   22.1   14.1   19.6   22.1    2.3  339.8   0.00   0.00 -99.00 1981151
 1981 152   517    7.5    9.9   11.0   10.2   20.4   0.26   27.5   15.5   20.9   23.4   14.5   20.9   23.4    2.1  339.8   0.00   0.00 -99.00 1981152
 1981 153   518   36.8    9.9   11.0    4.8    9.6   0.65   18.8   14.0   16.2   17.1   15.6   16.2   17.1    3.7  339.8   0.00   0.00 -99.00 1981153
 1981 154   519   16.0    9.9   11.0   12.1   24.2   0.11   16.4    9.8   12.8   14.1    9.9   12.8   14.1    1.5  339.8   0.00   0.00 -99.00 1981154
 1981 155   520    0.0    9.9   11.0   10.6   21.2   0.22   18.7    7.3   12.4   14.7    8.5   12.4   14.7    1.2  339.8   0.00   0.00 -99.00 1981155
 1981 156   521    0.0    9.9   10.9   11.4   22.8   0.15   20.2    8.5   13.8   16.1   10.1   13.8   16.1    1.9  339.8   0.00   0.00 -99.00 1981156
 1981 157   522    0.0    9.9   10.9    4.9    9.8   0.64   18.8   14.0   16.2   17.1   15.4   16.2   17.1    1.5  339.8   0.00   0.00 -99.00 1981157
[...]
 2016 233 13381    7.0   10.9   11.9   11.6   23.2   0.38   15.0   11.4   13.1   13.7   10.4   13.1   13.7    3.8  404.5   0.00   0.00 -99.00 2016233
 2016 234 13382    0.0   11.0   11.9   11.1   22.2   0.41   12.3    5.8    8.8   10.0    6.4    8.8   10.0    6.3  404.5   0.00   0.00 -99.00 2016234
 2016 235 13383    0.0   11.0   11.9   14.7   29.4   0.23   18.9    4.4   11.1   13.9    6.6   11.1   13.9    2.9  404.5   0.00   0.00 -99.00 2016235
 2016 236 13384    0.0   11.0   12.0   17.0   34.0   0.11   22.0    8.9   15.0   17.5    8.2   15.0   17.5    3.1  404.5   0.00   0.00 -99.00 2016236
 2016 237 13385    0.0   11.1   12.0   17.2   34.4   0.11   22.3   10.3   15.9   18.2    9.4   15.9   18.2    2.1  404.5   0.00   0.00 -99.00 2016237
 2016 238 13386    0.0   11.1   12.0   16.2   32.4   0.17   20.8   11.8   16.0   17.7   11.9   16.0   17.7    2.2  404.5   0.00   0.00 -99.00 2016238
 2016 239 13387    0.1   11.1   12.1   16.1   32.2   0.18   24.3   11.4   17.4   19.9   14.2   17.4   19.9    2.1  404.5   0.00   0.00 -99.00 2016239
 2016 240 13388    0.7   11.2   12.1   11.7   23.4   0.41   24.5   16.5   20.2   21.8   16.9   20.2   21.8    2.8  404.5   0.00   0.00 -99.00 2016240
 2016 241 13389   22.9   11.2   12.1    8.4   16.8   0.58   16.8   12.8   14.7   15.4   12.8   14.7   15.4    4.1  404.5   0.00   0.00 -99.00 2016241
 2016 242 13390   10.7   11.2   12.2    4.0    8.0   0.80   15.2   13.5   14.3   14.6   13.9   14.3   14.6    4.0  404.5   0.00   0.00 -99.00 2016242
 2016 243 13391   15.5   11.3   12.2    4.1    8.2   0.80   15.7   14.0   14.8   15.1   14.6   14.8   15.1    3.6  404.5   0.00   0.00 -99.00 2016243
 2016 244 13392   11.9   11.3   12.2    6.9   13.8   0.66   17.0   12.3   14.5   15.4   14.0   14.5   15.4    3.0  404.5   0.00   0.00 -99.00 2016244
 2016 245 13393    0.6   11.3   12.3   12.5   25.0   0.40   16.4    9.3   12.6   14.0   10.6   12.6   14.0    2.1  404.5   0.00   0.00 -99.00 2016245
 2016 246 13394    1.0   11.4   12.3   11.0   22.0   0.47   12.0    9.4   10.6   11.1    8.1   10.6   11.1    4.9  404.5   0.00   0.00 -99.00 2016246
 2016 247 13395    6.3   11.4   12.3    6.3   12.6   0.70   12.2    9.6   10.8   11.3    9.4   10.8   11.3    5.5  404.5   0.00   0.00 -99.00 2016247
 2016 248 13396    4.7   11.4   12.4    4.4    8.8   0.79   14.3   11.1   12.6   13.2   11.7   12.6   13.2    4.9  404.5   0.00   0.00 -99.00 2016248
 2016 249 13397    7.6   11.5   12.4    6.2   12.4   0.71   16.8   12.8   14.7   15.5   14.2   14.7   15.5    4.3  404.5   0.00   0.00 -99.00 2016249
 2016 250 13398   32.5   11.5   12.4    6.8   13.6   0.69   15.8    9.7   12.6   13.8   12.0   12.6   13.8    3.5  404.5   0.00   0.00 -99.00 2016250
 2016 251 13399    3.0   11.5   12.5    8.0   16.0   0.63   15.9   10.5   13.1   14.1   11.8   13.1   14.1    5.0  404.5   0.00   0.00 -99.00 2016251
 2016 252 13400    0.1   11.6   12.5    9.2   18.4   0.58   16.9   10.8   13.7   14.9   12.0   13.7   14.9    4.0  404.5   0.00   0.00 -99.00 2016252
 2016 253 13401    0.1   11.6   12.5   16.0   32.0   0.28   21.0    9.0   14.7   17.0   12.6   14.7   17.0    1.8  404.5   0.00   0.00 -99.00 2016253
 2016 254 13402    0.0   11.7   12.6   19.9   39.8   0.11   25.0   12.4   18.4   20.9   14.8   18.4   20.9    1.9  404.5   0.00   0.00 -99.00 2016254
 2016 255 13403    0.0   11.7   12.6   19.4   38.8   0.14   18.6   10.8   14.5   16.0   11.0   14.5   16.0    1.9  404.5   0.00   0.00 -99.00 2016255
 2016 256 13404    0.0   11.7   12.6   12.3   24.6   0.46   19.9   13.9   16.7   17.9   15.0   16.7   17.9    3.2  404.5   0.00   0.00 -99.00 2016256
 2016 257 13405   39.1   11.8   12.7   14.5   29.0   0.37   19.0   13.8   16.3   17.3   13.8   16.3   17.3    3.4  404.5   0.00   0.00 -99.00 2016257
 2016 258 13406    0.4   11.8   12.7   13.9   27.8   0.40   15.6   11.0   13.2   14.1    8.9   13.2   14.1    6.8  404.5   0.00   0.00 -99.00 2016258
 2016 259 13407    0.0   11.8   12.8   11.7   23.4   0.50   14.8    9.2   11.9   13.0    8.9   11.9   13.0    4.8  404.8   0.00   0.00 -99.00 2016259
 2016 260 13408    0.0   11.9   12.8   16.5   33.0   0.30   18.8    6.2   12.2   14.7    9.1   12.2   14.7    2.0  404.8   0.00   0.00 -99.00 2016260
 2016 261 13409    0.0   11.9   12.8   17.4   34.8   0.26   18.3   10.9   14.4   15.9   11.7   14.4   15.9    2.0  404.8   0.00   0.00 -99.00 2016261
 2016 262 13410    0.0   11.9   12.9   16.8   33.6   0.29   18.6   12.0   15.2   16.5   13.3   15.2   16.5    2.0  404.8   0.00   0.00 -99.00 2016262
 2016 263 13411    0.0   12.0   12.9   14.8   29.6   0.38   15.8    9.2   12.4   13.7   10.2   12.4   13.7    3.4  404.8   0.00   0.00 -99.00 2016263
 2016 264 13412    0.0   12.0   12.9   14.4   28.8   0.40   18.9   12.1   15.4   16.5   13.1   15.4   16.5    4.4  404.8   0.00   0.00 -99.00 2016264
 2016 265 13413    0.1   12.0   13.0   16.5   33.0   0.32   21.0   12.6   16.6   18.0   14.5   16.6   18.0    2.2  404.8   0.00   0.00 -99.00 2016265
 2016 266 13414    0.0   12.1   13.0   19.7   39.4   0.20   24.1   13.9   18.8   20.5   15.8   18.8   20.5    3.1  404.8   0.00   0.00 -99.00 2016266
 2016 267 13415    0.0   12.1   13.0   21.2   42.4   0.14   18.6   11.0   14.6   15.9    9.6   14.6   15.9    3.8  404.8   0.00   0.00 -99.00 2016267
 2016 268 13416    0.0   12.2   13.1   18.6   37.2   0.25   15.6    6.0   10.6   12.2    6.8   10.6   12.2    4.1  404.8   0.00   0.00 -99.00 2016268
 2016 269 13417    0.0   12.2   13.1   18.0   36.0   0.28   15.3    8.6   11.8   12.9    8.4   11.8   12.9    4.1  404.8   0.00   0.00 -99.00 2016269
 2016 270 13418    0.0   12.2   13.1   18.3   36.6   0.27   16.4    7.6   11.8   13.3    9.0   11.8   13.3    2.4  404.8   0.00   0.00 -99.00 2016270
 2016 271 13419    0.1   12.3   13.2   21.5   43.0   0.15   20.2    6.4   13.1   15.3    9.6   13.1   15.3    1.7  404.8   0.00   0.00 -99.00 2016271
 2016 272 13420    0.0   12.3   13.2   22.3   44.6   0.13   21.2    9.9   15.4   17.2   11.4   15.4   17.2    2.3  404.8   0.00   0.00 -99.00 2016272
 2016 273 13421    0.0   12.3   13.3   22.7   45.4   0.12   16.6   11.2   13.8   14.7    9.1   13.8   14.7    4.2  404.8   0.00   0.00 -99.00 2016273
 2016 274 13422    0.0   12.4   13.3   21.9   43.8   0.15   17.8   10.5   14.0   15.3   10.0   14.0   15.3    4.1  404.8   0.00   0.00 -99.00 2016274
 2016 275 13423    0.0   12.4   13.3   21.1   42.2   0.19   20.0   12.1   15.9   17.3   12.1   15.9   17.3    3.2  404.8   0.00   0.00 -99.00 2016275
 2016 276 13424    0.0   12.4   13.4   20.3   40.6   0.23   20.7   12.9   16.7   18.0   13.0   16.7   18.0    3.4  404.8   0.00   0.00 -99.00 2016276
 2016 277 13425    0.0   12.5   13.4   19.2   38.4   0.27   20.1   14.2   17.1   18.1   14.2   17.1   18.1    3.9  404.8   0.00   0.00 -99.00 2016277
 2016 278 13426    0.1   12.5   13.4   16.8   33.6   0.37   19.2   13.8   16.4   17.3   13.8   16.4   17.3    3.8  404.8   0.00   0.00 -99.00 2016278
 2016 279 13427    0.2   12.5   13.5   12.7   25.4   0.52   19.7   14.1   16.8   17.8   14.3   16.8   17.8    3.6  404.8   0.00   0.00 -99.00 2016279
 2016 280 13428    0.1   12.6   13.5   17.9   35.8   0.33   20.4   13.1   16.7   17.9   13.7   16.7   17.9    3.2  404.8   0.00   0.00 -99.00 2016280
 2016 281 13429    0.0   12.6   13.5   17.6   35.2   0.35   21.6   12.8   17.1   18.6   14.2   17.1   18.6    2.6  404.8   0.00   0.00 -99.00 2016281
 2016 282 13430    5.0   12.6   13.6   19.1   38.2   0.30   18.6   10.5   14.5   15.8   10.6   14.5   15.8    2.6  404.8   0.00   0.00 -99.00 2016282
 2016 283 13431    1.4   12.7   13.6   24.9   49.8   0.09   20.0    6.0   12.8   15.2    6.8   12.8   15.2    3.1  404.8   0.00   0.00 -99.00 2016283
 2016 284 13432    0.0   12.7   13.7   23.9   47.8   0.13   22.6    9.4   15.9   18.1    7.8   15.9   18.1    2.0  404.8   0.00   0.00 -99.00 2016284
 2016 285 13433    0.0   12.8   13.7   23.4   46.8   0.15   22.5   13.5   17.9   19.5   12.0   17.9   19.5    2.7  404.8   0.00   0.00 -99.00 2016285
 2016 286 13434    0.0   12.8   13.7   18.4   36.8   0.34   23.6   15.5   19.5   20.9   16.0   19.5   20.9    3.1  404.8   0.00   0.00 -99.00 2016286
 2016 287 13435    0.8   12.8   13.8   16.5   33.0   0.41   26.7   16.3   21.4   23.2   18.5   21.4   23.2    2.4  404.8   0.00   0.00 -99.00 2016287
 2016 288 13436    1.8   12.9   13.8   17.5   35.0   0.38   22.2   15.4   18.7   19.9   16.1   18.7   19.9    2.9  404.8   0.00   0.00 -99.00 2016288
 2016 289 13437    0.7   12.9   13.8   15.5   31.0   0.45   21.2   15.8   18.5   19.4   16.4   18.5   19.4    3.4  405.0   0.00   0.00 -99.00 2016289
 2016 290 13438   13.7   12.9   13.9   11.2   22.4   0.61   25.1   17.4   21.2   22.5   19.8   21.2   22.5    3.3  405.0   0.00   0.00 -99.00 2016290
 2016 291 13439   14.2   13.0   13.9   10.0   20.0   0.65   22.2   16.6   19.4   20.3   17.9   19.4   20.3    2.6  405.0   0.00   0.00 -99.00 2016291
 2016 292 13440    1.8   13.0   13.9    7.1   14.2   0.75   17.2   13.4   15.3   15.9   13.9   15.3   15.9    3.7  405.0   0.00   0.00 -99.00 2016292
 2016 293 13441    2.3   13.0   14.0    6.2   12.4   0.78   18.1   15.5   16.8   17.2   16.2   16.8   17.2    3.9  405.0   0.00   0.00 -99.00 2016293
 2016 294 13442   29.9   13.1   14.0    8.8   17.6   0.70   18.9   14.0   16.4   17.3   15.4   16.4   17.3    6.1  405.0   0.00   0.00 -99.00 2016294
 2016 295 13443    0.9   13.1   14.0   19.2   38.4   0.34   18.3   12.7   15.5   16.5   13.4   15.5   16.5    3.6  405.0   0.00   0.00 -99.00 2016295
 2016 296 13444    0.0   13.1   14.1   22.8   45.6   0.22   20.7    9.6   15.1   17.1   12.2   15.1   17.1    3.0  405.0   0.00   0.00 -99.00 2016296
 2016 297 13445    0.0   13.1   14.1   22.2   44.4   0.24   22.7   15.2   18.9   20.2   16.3   18.9   20.2    2.9  405.0   0.00   0.00 -99.00 2016297
 2016 298 13446    0.4   13.2   14.2   15.6   31.2   0.47   19.5   17.1   18.3   18.7   16.6   18.3   18.7    3.5  405.0   0.00   0.00 -99.00 2016298
 2016 299 13447    0.8   13.2   14.2    8.5   17.0   0.71   19.0   17.0   18.0   18.3   16.7   18.0   18.3    4.8  405.0   0.00   0.00 -99.00 2016299
 2016 300 13448    4.0   13.2   14.2    7.8   15.6   0.74   21.9   17.0   19.4   20.3   18.5   19.4   20.3    4.9  405.0   0.00   0.00 -99.00 2016300
 2016 301 13449   13.3   13.3   14.3   11.2   22.4   0.62   19.7   11.0   15.3   16.9   13.0   15.3   16.9    4.3  405.0   0.00   0.00 -99.00 2016301
 2016 302 13450    1.2   13.3   14.3   18.2   36.4   0.39   17.4   10.0   13.7   15.0    9.8   13.7   15.0    7.7  405.0   0.00   0.00 -99.00 2016302
 2016 303 13451    0.0   13.3   14.3   25.5   51.0   0.15   20.8    7.9   14.3   16.6   10.2   14.3   16.6    3.2  405.0   0.00   0.00 -99.00 2016303
 2016 304 13452    0.0   13.4   14.4   28.2   56.4   0.07   24.0   13.1   18.5   20.5   14.2   18.5   20.5    3.3  405.0   0.00   0.00 -99.00 2016304
 2016 305 13453    0.0   13.4   14.4   24.7   49.4   0.18   27.9   15.7   21.8   24.0   17.5   21.8   24.0    3.6  405.0   0.00   0.00 -99.00 2016305
 2016 306 13454    0.0   13.4   14.4   16.1   32.2   0.47   23.3   17.4   20.3   21.4   16.4   20.3   21.4    2.7  405.0   0.00   0.00 -99.00 2016306
 2016 307 13455   51.0   13.5   14.5   11.0   22.0   0.64   19.3   13.1   16.2   17.3   13.8   16.2   17.3    3.8  405.0   0.00   0.00 -99.00 2016307
 2016 308 13456    0.0   13.5   14.5   27.0   54.0   0.12   23.6    9.7   16.7   19.2   10.4   16.7   19.2    4.0  405.0   0.00   0.00 -99.00 2016308
 2016 309 13457    0.0   13.5   14.5   29.1   58.2   0.05   29.0   14.7   21.9   24.4   13.0   21.9   24.4    3.0  405.0   0.00   0.00 -99.00 2016309
 2016 310 13458    0.0   13.5   14.5   28.8   57.6   0.07   27.8   15.1   21.5   23.8   13.5   21.5   23.8    2.1  405.0   0.00   0.00 -99.00 2016310
 2016 311 13459    0.0   13.6   14.6   28.5   57.0   0.08   27.5   16.8   22.2   24.1   15.5   22.2   24.1    2.7  405.0   0.00   0.00 -99.00 2016311
 2016 312 13460    0.0   13.6   14.6   27.4   54.8   0.12   30.2   17.8   24.0   26.3   19.1   24.0   26.3    2.5  405.0   0.00   0.00 -99.00 2016312
 2016 313 13461    0.0   13.6   14.6   18.8   37.6   0.40   23.1   17.4   20.3   21.3   15.4   20.3   21.3    2.4  405.0   0.00   0.00 -99.00 2016313
 2016 314 13462    0.1   13.6   14.7   16.7   33.4   0.46   24.7   18.6   21.7   22.8   19.4   21.7   22.8    2.4  405.0   0.00   0.00 -99.00 2016314
 2016 315 13463    0.9   13.7   14.7   17.6   35.2   0.44   27.8   16.5   22.2   24.2   18.1   22.2   24.2    2.2  405.0   0.00   0.00 -99.00 2016315
 2016 316 13464    0.0   13.7   14.7   25.5   51.0   0.19   21.9   14.2   18.1   19.5   10.4   18.1   19.5    3.8  405.0   0.00   0.00 -99.00 2016316
 2016 317 13465    0.0   13.7   14.8   28.2   56.4   0.10   24.4    9.4   17.0   19.7    8.4   17.0   19.7    3.7  405.0   0.00   0.00 -99.00 2016317
 2016 318 13466    0.0   13.7   14.8   29.0   58.0   0.08   25.2   14.3   19.8   21.8   12.6   19.8   21.8    2.9  405.0   0.00   0.00 -99.00 2016318
 2016 319 13467    0.0   13.8   14.8   27.8   55.6   0.12   29.3   17.0   23.2   25.5   17.8   23.2   25.5    2.7  405.0   0.00   0.00 -99.00 2016319
 2016 320 13468    0.0   13.8   14.8   20.9   41.8   0.34   29.1   18.4   23.8   25.8   17.8   23.8   25.8    2.3  405.2   0.00   0.00 -99.00 2016320
 2016 321 13469    1.8   13.8   14.9   23.6   47.2   0.26   23.3   18.0   20.7   21.7   17.2   20.7   21.7    3.1  405.2   0.00   0.00 -99.00 2016321
 2016 322 13470    0.6   13.8   14.9   14.9   29.8   0.53   19.8   12.2   16.0   17.4   12.9   16.0   17.4    4.8  405.2   0.00   0.00 -99.00 2016322
 2016 323 13471   10.2   13.9   14.9   16.1   32.2   0.50   19.7   11.3   15.5   17.1   12.5   15.5   17.1    5.7  405.2   0.00   0.00 -99.00 2016323
 2016 324 13472    0.1   13.9   14.9   23.8   47.6   0.26   22.8   11.6   17.3   19.3   12.5   17.3   19.3    2.9  405.2   0.00   0.00 -99.00 2016324
 2016 325 13473    0.0   13.9   15.0   20.8   41.6   0.35   23.4   13.7   18.6   20.4   13.0   18.6   20.4    2.6  405.2   0.00   0.00 -99.00 2016325
 2016 326 13474    0.0   13.9   15.0   21.5   43.0   0.33   19.8   13.3   16.6   17.8   12.2   16.6   17.8    3.0  405.2   0.00   0.00 -99.00 2016326
 2016 327 13475    0.0   13.9   15.0   25.6   51.2   0.21   20.5    9.6   15.1   17.1   10.3   15.1   17.1    3.9  405.2   0.00   0.00 -99.00 2016327
 2016 328 13476    0.0   14.0   15.0   28.5   57.0   0.12   26.2   10.6   18.5   21.4   12.6   18.5   21.4    2.4  405.2   0.00   0.00 -99.00 2016328
 2016 329 13477    0.0   14.0   15.1   30.2   60.4   0.07   24.3   12.2   18.3   20.6   11.0   18.3   20.6    2.6  405.2   0.00   0.00 -99.00 2016329
 2016 330 13478    0.0   14.0   15.1   29.0   58.0   0.10   24.4   16.1   20.3   21.5   15.2   20.3   21.5    3.2  405.2   0.00   0.00 -99.00 2016330
 2016 331 13479    0.0   14.0   15.1   25.3   50.6   0.22   26.9   18.2   22.6   23.9   18.7   22.6   23.9    3.5  405.2   0.00   0.00 -99.00 2016331
 2016 332 13480   23.6   14.0   15.1   18.3   36.6   0.44   25.1   19.6   22.4   23.2   19.5   22.4   23.2    3.2  405.2   0.00   0.00 -99.00 2016332
 2016 333 13481    0.3   14.1   15.1   17.3   34.6   0.47   23.3   16.7   20.1   21.0   17.1   20.1   21.0    2.8  405.2   0.00   0.00 -99.00 2016333
 2016 334 13482    0.0   14.1   15.1   27.3   54.6   0.16   23.4   13.6   18.6   20.0   13.8   18.6   20.0    2.9  405.2   0.00   0.00 -99.00 2016334
 2016 335 13483    0.0   14.1   15.2   29.5   59.0   0.10   25.2   11.9   18.7   20.6   12.6   18.7   20.6    3.4  405.2   0.00   0.00 -99.00 2016335
 2016 336 13484    0.0   14.1   15.2   30.9   61.8   0.05   26.4   15.7   21.1   22.7   14.4   21.1   22.7    3.5  405.2   0.00   0.00 -99.00 2016336
 2016 337 13485    0.0   14.1   15.2   27.1   54.2   0.17   29.7   17.7   23.8   25.6   18.2   23.8   25.6    3.7  405.2   0.00   0.00 -99.00 2016337
 2016 338 13486    2.4   14.1   15.2   16.8   33.6   0.49   25.1   19.6   22.4   23.2   18.6   22.4   23.2    2.1  405.2   0.00   0.00 -99.00 2016338
 2016 339 13487    0.8   14.1   15.2   15.4   30.8   0.53   26.3   18.9   22.7   23.8   20.3   22.7   23.8    3.0  405.2   0.00   0.00 -99.00 2016339
 2016 340 13488    0.0   14.2   15.2   27.9   55.8   0.15   27.6   17.5   22.7   24.1   18.3   22.7   24.1    2.8  405.2   0.00   0.00 -99.00 2016340
 2016 341 13489    0.0   14.2   15.3   29.6   59.2   0.10   29.5   19.2   24.5   26.0   18.8   24.5   26.0    2.8  405.2   0.00   0.00 -99.00 2016341
 2016 342 13490    0.0   14.2   15.3   27.7   55.4   0.16   29.2   15.4   22.4   24.5   15.1   22.4   24.5    2.7  405.2   0.00   0.00 -99.00 2016342
 2016 343 13491    0.0   14.2   15.3   25.2   50.4   0.23   24.7   16.5   20.7   21.9   13.8   20.7   21.9    2.9  405.2   0.00   0.00 -99.00 2016343
 2016 344 13492    0.0   14.2   15.3   27.5   55.0   0.17   23.8    9.5   16.8   18.9   10.7   16.8   18.9    4.1  405.2   0.00   0.00 -99.00 2016344
 2016 345 13493    0.0   14.2   15.3   28.3   56.6   0.14   29.7   15.5   22.8   24.8   16.6   22.8   24.8    2.5  405.2   0.00   0.00 -99.00 2016345
 2016 346 13494    0.0   14.2   15.3   27.7   55.4   0.16   28.7   18.0   23.5   25.0   14.1   23.5   25.0    2.8  405.2   0.00   0.00 -99.00 2016346
 2016 347 13495    0.0   14.2   15.3   30.5   61.0   0.08   32.3   14.5   23.6   26.2   14.8   23.6   26.2    3.8  405.2   0.00   0.00 -99.00 2016347
 2016 348 13496    0.6   14.2   15.3   23.8   47.6   0.28   28.0   18.2   23.2   24.7   15.2   23.2   24.7    3.3  405.2   0.00   0.00 -99.00 2016348
 2016 349 13497    0.1   14.2   15.3   26.1   52.2   0.21   21.7   11.6   16.8   18.3    9.8   16.8   18.3    4.6  405.2   0.00   0.00 -99.00 2016349
 2016 350 13498    0.1   14.2   15.3   31.2   62.4   0.06   24.2    9.7   17.1   19.3    8.4   17.1   19.3    4.1  405.4   0.00   0.00 -99.00 2016350
 2016 351 13499    0.0   14.2   15.3   30.8   61.6   0.07   26.6   15.3   21.1   22.7   13.0   21.1   22.7    3.3  405.4   0.00   0.00 -99.00 2016351
 2016 352 13500    0.0   14.2   15.3   30.0   60.0   0.09   31.3   18.8   25.2   27.0   18.9   25.2   27.0    4.4  405.4   0.00   0.00 -99.00 2016352
 2016 353 13501    0.0   14.2   15.4   26.2   52.4   0.21   33.3   21.3   27.4   29.2   22.0   27.4   29.2    3.4  405.4   0.00   0.00 -99.00 2016353
 2016 354 13502   21.4   14.2   15.4   19.7   39.4   0.40   27.8   20.4   24.2   25.3   19.5   24.2   25.3    2.9  405.4   0.00   0.00 -99.00 2016354
 2016 355 13503    6.8   14.2   15.4   22.8   45.6   0.31   29.2   16.5   23.0   24.9   18.5   23.0   24.9    2.5  405.4   0.00   0.00 -99.00 2016355
 2016 356 13504    0.0   14.2   15.4   30.8   61.6   0.07   29.5   16.4   23.1   25.0   16.9   23.1   25.0    2.6  405.4   0.00   0.00 -99.00 2016356
 2016 357 13505    0.0   14.2   15.4   27.8   55.6   0.16   33.1   20.6   27.0   28.8   21.9   27.0   28.8    2.7  405.4   0.00   0.00 -99.00 2016357
 2016 358 13506   12.5   14.2   15.4   20.3   40.6   0.39   28.2   21.6   25.0   25.9   20.6   25.0   25.9    3.2  405.4   0.00   0.00 -99.00 2016358
 2016 359 13507    0.6   14.2   15.4   21.1   42.2   0.36   27.8   17.2   22.6   24.2   18.5   22.6   24.2    2.2  405.4   0.00   0.00 -99.00 2016359
 2016 360 13508    0.0   14.2   15.4   22.1   44.2   0.33   30.2   19.5   25.0   26.5   20.9   25.0   26.5    3.3  405.4   0.00   0.00 -99.00 2016360
 2016 361 13509   38.2   14.2   15.3   18.5   37.0   0.44   26.3   21.1   23.8   24.5   21.0   23.8   24.5    3.4  405.4   0.00   0.00 -99.00 2016361
 2016 362 13510   15.0   14.2   15.3   10.9   21.8   0.67   24.0   20.2   22.1   22.7   20.4   22.1   22.7    2.5  405.4   0.00   0.00 -99.00 2016362
 2016 363 13511    1.7   14.2   15.3   13.5   27.0   0.59   26.9   19.2   23.1   24.3   20.8   23.1   24.3    2.8  405.4   0.00   0.00 -99.00 2016363
 2016 364 13512    0.0   14.2   15.3   19.8   39.6   0.40   26.9   19.9   23.5   24.5   20.2   23.5   24.5    2.5  405.4   0.00   0.00 -99.00 2016364
 2016 365 13513    0.1   14.2   15.3   15.2   30.4   0.54   27.8   20.5   24.2   25.3   22.4   24.2   25.3    3.2  405.4   0.00   0.00 -99.00 2016365
